@<TRIPOS>MOLECULE
134.60640
 81 83 0 0 0
SMALL
GASTEIGER

@<TRIPOS>ATOM
      1 H          17.0350   26.9590  112.5830 H       1  UNL1        0.2099
      2 H          14.7690   26.2820  117.9490 H       1  UNL1        0.0465
      3 H          16.6420   25.2210  115.4920 H       1  UNL1        0.0676
      4 H          18.0590   27.1250  114.5380 H       1  UNL1        0.0624
      5 H          16.7300   29.0370  113.6040 H       1  UNL1        0.0349
      6 H          14.4770   28.1080  113.7760 H       1  UNL1        0.0606
      7 H          14.6210   30.4840  115.6890 H       1  UNL1        0.0365
      8 H          10.1380   29.8870  115.2890 H       1  UNL1        0.0666
      9 H           8.4110   30.1500  113.4120 H       1  UNL1        0.0625
     10 H          10.6280   28.0690  113.0450 H       1  UNL1        0.0291
     11 H           8.7210   26.4880  113.5080 H       1  UNL1        0.0266
     12 H           8.3200   26.7530  115.8940 H       1  UNL1        0.0267
     13 H          10.7710   27.7310  116.5670 H       1  UNL1        0.0304
     14 H          10.2570   25.4370  117.1700 H       1  UNL1        0.0785
     15 H          14.2550   23.7280  116.3240 H       1  UNL1        0.0239
     16 H          18.2000   24.9380  117.1780 H       1  UNL1        0.0524
     17 H          16.9810   30.4570  115.5380 H       1  UNL1        0.0234
     18 H          15.8040   31.0840  113.6040 H       1  UNL1        0.0236
     19 H           9.8230   33.2730  116.0930 H       1  UNL1        0.0524
     20 H           9.4530   32.0810  110.7130 H       1  UNL1        0.0524
     21 H          11.6670   25.0190  113.6760 H       1  UNL1        0.0621
     22 H          10.7670   23.3930  112.0500 H       1  UNL1        0.0618
     23 H           8.7680   22.0360  112.6180 H       1  UNL1        0.0618
     24 H           7.6730   22.3100  114.8260 H       1  UNL1        0.0618
     25 H           8.5550   23.9330  116.4620 H       1  UNL1        0.0621
     26 H          14.9080   25.8710  113.9090 H       1  UNL1        0.2129
     27 H          12.4330   29.4410  115.8120 H       1  UNL1        0.0573
     28 H          12.1030   31.0190  113.1960 H       1  UNL1        0.0595
     29 H           8.3710   31.9880  112.1140 H       1  UNL1        0.0524
     30 H           9.2710   28.1660  111.9790 H       1  UNL1        0.0291
     31 H           7.6520   27.8350  113.7970 H       1  UNL1        0.0266
     32 H           8.7770   28.4230  115.8470 H       1  UNL1        0.0267
     33 H          11.1480   27.3240  114.9290 H       1  UNL1        0.0304
     34 H          14.0940   23.8590  118.0760 H       1  UNL1        0.0239
     35 H          19.0260   26.3190  116.3870 H       1  UNL1        0.0524
     36 H          18.2120   29.2110  115.6810 H       1  UNL1        0.0234
     37 H          14.2590   31.9050  113.6570 H       1  UNL1        0.0236
     38 H           9.7440   31.6140  116.7150 H       1  UNL1        0.0524
     39 H          10.0820   32.5140  112.3020 H       1  UNL1        0.0524
     40 H          15.6730   24.0870  117.3230 H       1  UNL1        0.0239
     41 H          18.6910   26.3540  118.1270 H       1  UNL1        0.0524
     42 H          16.7400   29.1290  116.6690 H       1  UNL1        0.0234
     43 H          14.4630   30.4730  112.6260 H       1  UNL1        0.0236
     44 H          11.3000   32.2960  116.1350 H       1  UNL1        0.0524
     45 C          12.8290   26.0110  117.2350 C.2     1  UNL1        0.3158
     46 C          14.3190   25.7800  117.0810 C.3     1  UNL1        0.1098
     47 C          14.8680   26.4360  115.7860 C.3     1  UNL1        0.2096
     48 C          16.4270   26.2770  115.7060 C.3     1  UNL1        0.1386
     49 C          16.9640   27.1280  114.5380 C.3     1  UNL1        0.0913
     50 C          16.4500   28.5790  114.5610 C.3     1  UNL1        0.0117
     51 C          14.9030   28.5870  114.6680 C.3     1  UNL1        0.0730
     52 C          14.2760   30.0160  114.7570 C.3     1  UNL1        0.0011
     53 C          12.7600   29.9490  114.9040 C.2     1  UNL1       -0.0802
     54 C          11.8230   30.4870  114.1010 C.2     1  UNL1       -0.0568
     55 C          10.3380   30.4700  114.3900 C.3     1  UNL1        0.1025
     56 C           9.4650   29.9080  113.2200 C.3     1  UNL1        0.0879
     57 C           9.5810   28.3850  113.0120 C.3     1  UNL1       -0.0239
     58 C           8.6930   27.5070  113.9100 C.3     1  UNL1       -0.0505
     59 C           9.0130   27.4480  115.4060 C.3     1  UNL1       -0.0493
     60 C          10.4610   27.0770  115.7430 C.3     1  UNL1       -0.0114
     61 C          10.7040   25.6200  116.1850 C.3     1  UNL1        0.1280
     62 C          14.6030   24.2810  117.2020 C.3     1  UNL1       -0.0472
     63 C          18.3080   26.0260  117.1570 C.3     1  UNL1        0.0371
     64 C          17.1300   29.3820  115.6790 C.3     1  UNL1       -0.0576
     65 C          14.7230   30.9140  113.5940 C.3     1  UNL1       -0.0566
     66 C          10.2190   32.2610  115.9720 C.3     1  UNL1        0.0373
     67 C           9.4020   31.8390  111.7780 C.3     1  UNL1        0.0369
     68 C          10.1750   24.6040  115.1890 C.ar    1  UNL1       -0.0073
     69 C          10.7870   24.4320  113.9360 C.ar    1  UNL1       -0.0551
     70 C          10.2830   23.5130  113.0150 C.ar    1  UNL1       -0.0614
     71 C           9.1610   22.7520  113.3350 C.ar    1  UNL1       -0.0617
     72 C           8.5460   22.9060  114.5770 C.ar    1  UNL1       -0.0614
     73 C           9.0500   23.8250  115.4990 C.ar    1  UNL1       -0.0551
     74 O          12.3290   26.6520  118.1530 O.2     1  UNL1       -0.2503
     75 O          14.2710   25.8020  114.6490 O.3     1  UNL1       -0.3619
     76 O          17.0470   26.6470  116.9460 O.3     1  UNL1       -0.3718
     77 O          16.5540   26.5110  113.3040 O.3     1  UNL1       -0.3887
     78 O          14.5050   27.8280  115.8230 O.3     1  UNL1       -0.3415
     79 O           9.9120   31.8230  114.6540 O.3     1  UNL1       -0.3732
     80 O           9.8120   30.4880  111.9370 O.3     1  UNL1       -0.3769
     81 O          12.1240   25.3750  116.2690 O.3     1  UNL1       -0.4563
@<TRIPOS>BOND
     1    20    67    1
     2    67    80    1
     3    67    29    1
     4    67    39    1
     5    80    56    1
     6    30    57    1
     7    22    70    1
     8     1    77    1
     9    23    71    1
    10    43    65    1
    11    57    10    1
    12    57    56    1
    13    57    58    1
    14    70    71   ar
    15    70    69   ar
    16    28    54    1
    17    56     9    1
    18    56    55    1
    19    77    49    1
    20    71    72   ar
    21    11    58    1
    22    65    18    1
    23    65    37    1
    24    65    52    1
    25     5    50    1
    26    21    69    1
    27     6    51    1
    28    31    58    1
    29    26    75    1
    30    58    59    1
    31    69    68   ar
    32    54    55    1
    33    54    53    2
    34    55    79    1
    35    55     8    1
    36    49     4    1
    37    49    50    1
    38    49    48    1
    39    50    51    1
    40    50    64    1
    41    72    24    1
    42    72    73   ar
    43    75    47    1
    44    79    66    1
    45    51    52    1
    46    51    78    1
    47    52    53    1
    48    52     7    1
    49    53    27    1
    50    33    60    1
    51    68    73   ar
    52    68    61    1
    53    59    60    1
    54    59    32    1
    55    59    12    1
    56     3    48    1
    57    73    25    1
    58    17    64    1
    59    64    36    1
    60    64    42    1
    61    48    47    1
    62    48    76    1
    63    60    61    1
    64    60    13    1
    65    47    78    1
    66    47    46    1
    67    66    19    1
    68    66    44    1
    69    66    38    1
    70    61    81    1
    71    61    14    1
    72    81    45    1
    73    15    62    1
    74    35    63    1
    75    76    63    1
    76    46    62    1
    77    46    45    1
    78    46     2    1
    79    63    16    1
    80    63    41    1
    81    62    40    1
    82    62    34    1
    83    45    74    2
