@<TRIPOS>MOLECULE
139.34966
 81 83 0 0 0
SMALL
GASTEIGER

@<TRIPOS>ATOM
      1 H          18.0850   25.5970  114.7920 H       1  UNL1        0.2099
      2 H          12.8850   27.9050  113.3390 H       1  UNL1        0.0465
      3 H          16.1150   28.2830  114.0690 H       1  UNL1        0.0676
      4 H          17.4670   26.4800  112.8600 H       1  UNL1        0.0624
      5 H          16.8410   24.1420  113.4280 H       1  UNL1        0.0349
      6 H          15.3430   24.6120  115.3000 H       1  UNL1        0.0606
      7 H          13.6000   23.3010  113.1660 H       1  UNL1        0.0365
      8 H          11.9310   21.7730  117.2770 H       1  UNL1        0.0666
      9 H          10.2420   23.3110  116.4180 H       1  UNL1        0.0625
     10 H           9.6990   25.4230  117.3100 H       1  UNL1        0.0291
     11 H          11.3080   24.7100  119.6740 H       1  UNL1        0.0266
     12 H          12.3110   26.7220  120.1530 H       1  UNL1        0.0267
     13 H          12.1510   28.7880  119.0890 H       1  UNL1        0.0304
     14 H          10.2890   27.5640  116.9960 H       1  UNL1        0.0785
     15 H          14.1880   29.6200  115.5170 H       1  UNL1        0.0239
     16 H          16.2350   29.5090  112.1240 H       1  UNL1        0.0524
     17 H          15.3870   23.7750  111.5260 H       1  UNL1        0.0234
     18 H          15.8160   22.1730  113.0420 H       1  UNL1        0.0236
     19 H          14.0800   22.2320  119.9870 H       1  UNL1        0.0524
     20 H           7.9090   22.4320  118.9110 H       1  UNL1        0.0524
     21 H          12.2640   30.7520  117.6610 H       1  UNL1        0.0621
     22 H          11.2960   32.9980  117.3220 H       1  UNL1        0.0618
     23 H           8.9520   33.2430  116.5470 H       1  UNL1        0.0618
     24 H           7.5760   31.2260  116.1060 H       1  UNL1        0.0618
     25 H           8.5250   28.9750  116.4410 H       1  UNL1        0.0621
     26 H          15.7910   26.7420  115.9320 H       1  UNL1        0.2129
     27 H          12.6970   21.8800  114.9660 H       1  UNL1        0.0573
     28 H          13.4810   24.3470  116.6050 H       1  UNL1        0.0595
     29 H           8.1970   24.1100  118.4290 H       1  UNL1        0.0524
     30 H          11.3980   25.4720  116.9220 H       1  UNL1        0.0291
     31 H           9.9880   25.8370  119.5020 H       1  UNL1        0.0266
     32 H          12.8270   26.4530  118.5000 H       1  UNL1        0.0267
     33 H          10.5050   28.2560  119.4060 H       1  UNL1        0.0304
     34 H          12.7840   30.1130  114.5610 H       1  UNL1        0.0239
     35 H          17.0410   28.0800  111.4020 H       1  UNL1        0.0524
     36 H          16.3710   25.1800  111.1410 H       1  UNL1        0.0234
     37 H          14.6910   21.1140  113.8660 H       1  UNL1        0.0236
     38 H          13.0230   21.0620  119.1710 H       1  UNL1        0.0524
     39 H           8.1370   22.8090  117.1930 H       1  UNL1        0.0524
     40 H          14.3230   29.8200  113.7640 H       1  UNL1        0.0239
     41 H          15.6270   28.8000  110.6150 H       1  UNL1        0.0524
     42 H          14.6780   25.3780  111.6360 H       1  UNL1        0.0234
     43 H          15.8760   22.0350  114.8060 H       1  UNL1        0.0236
     44 H          14.3770   21.8360  118.2820 H       1  UNL1        0.0524
     45 C          12.0780   27.6850  115.2470 C.2     1  UNL1        0.3158
     46 C          13.2720   27.9960  114.3640 C.3     1  UNL1        0.1098
     47 C          14.4350   26.9870  114.5450 C.3     1  UNL1        0.2096
     48 C          15.6430   27.3970  113.6220 C.3     1  UNL1        0.1386
     49 C          16.6820   26.2630  113.5920 C.3     1  UNL1        0.0913
     50 C          16.0550   24.8940  113.2800 C.3     1  UNL1        0.0117
     51 C          14.9150   24.6170  114.2890 C.3     1  UNL1        0.0730
     52 C          14.1990   23.2400  114.0840 C.3     1  UNL1        0.0011
     53 C          13.2320   22.8070  115.1780 C.2     1  UNL1       -0.0802
     54 C          12.9910   23.4090  116.3520 C.2     1  UNL1       -0.0568
     55 C          12.0810   22.8520  117.4220 C.3     1  UNL1        0.1025
     56 C          10.6670   23.5100  117.4120 C.3     1  UNL1        0.0879
     57 C          10.6780   25.0350  117.6170 C.3     1  UNL1       -0.0239
     58 C          10.9350   25.5250  119.0460 C.3     1  UNL1       -0.0505
     59 C          11.9480   26.6750  119.1170 C.3     1  UNL1       -0.0493
     60 C          11.3860   28.0630  118.7810 C.3     1  UNL1       -0.0114
     61 C          11.0380   28.2990  117.3010 C.3     1  UNL1        0.1280
     62 C          13.6690   29.4660  114.5650 C.3     1  UNL1       -0.0472
     63 C          16.0820   28.5710  111.5830 C.3     1  UNL1        0.0371
     64 C          15.5940   24.8090  111.8180 C.3     1  UNL1       -0.0576
     65 C          15.2030   22.0810  113.9420 C.3     1  UNL1       -0.0566
     66 C          13.5990   21.9840  119.0370 C.3     1  UNL1        0.0373
     67 C           8.4510   23.0700  118.2080 C.3     1  UNL1        0.0369
     68 C          10.4620   29.6930  117.0950 C.ar    1  UNL1       -0.0073
     69 C          11.2320   30.8440  117.3310 C.ar    1  UNL1       -0.0551
     70 C          10.6900   32.1150  117.1360 C.ar    1  UNL1       -0.0614
     71 C           9.3740   32.2530  116.7000 C.ar    1  UNL1       -0.0617
     72 C           8.6010   31.1200  116.4540 C.ar    1  UNL1       -0.0614
     73 C           9.1410   29.8480  116.6490 C.ar    1  UNL1       -0.0551
     74 O          11.0580   27.1400  114.8350 O.2     1  UNL1       -0.2503
     75 O          14.8500   27.0050  115.9150 O.3     1  UNL1       -0.3619
     76 O          15.1950   27.7190  112.2960 O.3     1  UNL1       -0.3718
     77 O          17.3260   26.2050  114.8770 O.3     1  UNL1       -0.3887
     78 O          13.9430   25.6770  114.2050 O.3     1  UNL1       -0.3415
     79 O          12.7400   23.0570  118.6800 O.3     1  UNL1       -0.3732
     80 O           9.8410   22.8370  118.3820 O.3     1  UNL1       -0.3769
     81 O          12.2310   28.1910  116.5040 O.3     1  UNL1       -0.4563
@<TRIPOS>BOND
     1    41    63    1
     2    36    64    1
     3    35    63    1
     4    17    64    1
     5    63    16    1
     6    63    76    1
     7    42    64    1
     8    64    50    1
     9    76    48    1
    10     4    49    1
    11    18    65    1
    12     7    52    1
    13    50     5    1
    14    50    49    1
    15    50    51    1
    16     2    46    1
    17    49    48    1
    18    49    77    1
    19    48     3    1
    20    48    47    1
    21    40    62    1
    22    37    65    1
    23    65    52    1
    24    65    43    1
    25    52    51    1
    26    52    53    1
    27    78    51    1
    28    78    47    1
    29    51     6    1
    30    46    47    1
    31    46    62    1
    32    46    45    1
    33    47    75    1
    34    34    62    1
    35    62    15    1
    36     1    77    1
    37    74    45    2
    38    27    53    1
    39    53    54    2
    40    45    81    1
    41    75    26    1
    42    24    72    1
    43    54    28    1
    44    54    55    1
    45     9    56    1
    46    25    73    1
    47    72    73   ar
    48    72    71   ar
    49    81    61    1
    50    23    71    1
    51    73    68   ar
    52    71    70   ar
    53    30    57    1
    54    14    61    1
    55    68    61    1
    56    68    69   ar
    57    70    22    1
    58    70    69   ar
    59    39    67    1
    60     8    55    1
    61    61    60    1
    62    10    57    1
    63    69    21    1
    64    56    55    1
    65    56    57    1
    66    56    80    1
    67    55    79    1
    68    57    58    1
    69    67    80    1
    70    67    29    1
    71    67    20    1
    72    44    66    1
    73    32    59    1
    74    79    66    1
    75    60    13    1
    76    60    59    1
    77    60    33    1
    78    66    38    1
    79    66    19    1
    80    58    59    1
    81    58    31    1
    82    58    11    1
    83    59    12    1
