@<TRIPOS>MOLECULE
132.49636
 81 83 0 0 0
SMALL
GASTEIGER

@<TRIPOS>ATOM
      1 H          15.5860   23.3410  108.3080 H       1  UNL1        0.2099
      2 H          14.5460   26.9200  112.8000 H       1  UNL1        0.0465
      3 H          16.2560   24.5580  111.4230 H       1  UNL1        0.0676
      4 H          16.6540   25.1850  108.9530 H       1  UNL1        0.0624
      5 H          14.5810   25.3240  107.5760 H       1  UNL1        0.0349
      6 H          13.0400   24.3820  109.2530 H       1  UNL1        0.0606
      7 H          11.9870   27.1920  108.7560 H       1  UNL1        0.0365
      8 H           8.4020   24.5960  110.1920 H       1  UNL1        0.0666
      9 H           7.6110   22.2770  109.7060 H       1  UNL1        0.0625
     10 H          10.6620   22.3410  110.1350 H       1  UNL1        0.0291
     11 H           9.7160   21.5750  112.5090 H       1  UNL1        0.0266
     12 H           9.6360   24.5570  111.8960 H       1  UNL1        0.0267
     13 H          10.5580   22.9720  114.3210 H       1  UNL1        0.0304
     14 H          10.2760   25.9590  113.7540 H       1  UNL1        0.0785
     15 H          14.6030   24.1140  114.0310 H       1  UNL1        0.0239
     16 H          17.9680   25.9560  112.0760 H       1  UNL1        0.0524
     17 H          14.2700   27.7350  107.7660 H       1  UNL1        0.0234
     18 H          12.8290   26.5310  106.5590 H       1  UNL1        0.0236
     19 H           6.2240   25.9380  107.7750 H       1  UNL1        0.0524
     20 H           8.5070   20.3490  106.9420 H       1  UNL1        0.0524
     21 H          11.4040   23.4550  116.4080 H       1  UNL1        0.0621
     22 H          11.3530   23.9870  118.8130 H       1  UNL1        0.0618
     23 H          10.7200   26.2590  119.5810 H       1  UNL1        0.0618
     24 H          10.1380   28.0080  117.9210 H       1  UNL1        0.0618
     25 H          10.1740   27.4940  115.5100 H       1  UNL1        0.0621
     26 H          14.2260   23.3890  110.8390 H       1  UNL1        0.2129
     27 H          10.4930   25.9440  110.1520 H       1  UNL1        0.0573
     28 H          10.0740   24.2620  107.6100 H       1  UNL1        0.0595
     29 H           8.3890   20.0280  108.6830 H       1  UNL1        0.0524
     30 H           9.6430   20.9580  110.3600 H       1  UNL1        0.0291
     31 H           8.2880   22.5020  112.0730 H       1  UNL1        0.0266
     32 H          11.1310   23.6350  112.0050 H       1  UNL1        0.0267
     33 H           9.0290   23.8600  114.2300 H       1  UNL1        0.0304
     34 H          14.7780   25.6300  114.9160 H       1  UNL1        0.0239
     35 H          18.1270   26.1960  110.3070 H       1  UNL1        0.0524
     36 H          15.9490   27.3850  108.1600 H       1  UNL1        0.0234
     37 H          11.0900   26.3150  106.5600 H       1  UNL1        0.0236
     38 H           6.7890   26.0560  109.4530 H       1  UNL1        0.0524
     39 H           7.1200   20.9840  107.8490 H       1  UNL1        0.0524
     40 H          15.9930   25.1650  113.7210 H       1  UNL1        0.0239
     41 H          18.0230   27.5930  111.3950 H       1  UNL1        0.0524
     42 H          14.7840   27.7550  109.4440 H       1  UNL1        0.0234
     43 H          12.1600   24.9050  106.7210 H       1  UNL1        0.0236
     44 H           7.8810   26.4780  108.0920 H       1  UNL1        0.0524
     45 C          12.6980   26.1320  113.2890 C.2     1  UNL1        0.3158
     46 C          14.1320   25.9040  112.8560 C.3     1  UNL1        0.1098
     47 C          14.1970   25.2450  111.4550 C.3     1  UNL1        0.2096
     48 C          15.6640   25.3170  110.8910 C.3     1  UNL1        0.1386
     49 C          15.6700   24.9780  109.3870 C.3     1  UNL1        0.0913
     50 C          14.5910   25.7380  108.5920 C.3     1  UNL1        0.0117
     51 C          13.2210   25.4660  109.2460 C.3     1  UNL1        0.0730
     52 C          11.9930   26.1150  108.5390 C.3     1  UNL1        0.0011
     53 C          10.7100   25.5600  109.1550 C.2     1  UNL1       -0.0802
     54 C           9.8710   24.6670  108.5980 C.2     1  UNL1       -0.0568
     55 C           8.6030   24.1320  109.2220 C.3     1  UNL1        0.1025
     56 C           8.6220   22.5820  109.4020 C.3     1  UNL1        0.0879
     57 C           9.6440   22.0540  110.4260 C.3     1  UNL1       -0.0239
     58 C           9.3650   22.4120  111.8910 C.3     1  UNL1       -0.0505
     59 C          10.0920   23.6750  112.3480 C.3     1  UNL1       -0.0493
     60 C          10.0660   23.8440  113.8730 C.3     1  UNL1       -0.0114
     61 C          10.7850   25.1420  114.2830 C.3     1  UNL1        0.1280
     62 C          14.9210   25.1580  113.9370 C.3     1  UNL1       -0.0472
     63 C          17.6680   26.5730  111.2240 C.3     1  UNL1        0.0371
     64 C          14.9170   27.2340  108.4920 C.3     1  UNL1       -0.0576
     65 C          12.0200   25.9520  107.0130 C.3     1  UNL1       -0.0566
     66 C           7.0890   25.8050  108.4310 C.3     1  UNL1        0.0373
     67 C           8.1910   20.7680  107.9020 C.3     1  UNL1        0.0369
     68 C          10.7500   25.4210  115.7740 C.ar    1  UNL1       -0.0073
     69 C          11.1000   24.4500  116.7230 C.ar    1  UNL1       -0.0551
     70 C          11.0820   24.7490  118.0880 C.ar    1  UNL1       -0.0614
     71 C          10.7280   26.0260  118.5200 C.ar    1  UNL1       -0.0617
     72 C          10.3980   27.0070  117.5890 C.ar    1  UNL1       -0.0614
     73 C          10.4130   26.7080  116.2250 C.ar    1  UNL1       -0.0551
     74 O          12.1090   27.1980  113.1350 O.2     1  UNL1       -0.2503
     75 O          13.8010   23.8730  111.5750 O.3     1  UNL1       -0.3619
     76 O          16.2510   26.6090  111.1120 O.3     1  UNL1       -0.3718
     77 O          15.4480   23.5630  109.2480 O.3     1  UNL1       -0.3887
     78 O          13.2680   25.9330  110.6040 O.3     1  UNL1       -0.3415
     79 O           7.4990   24.4460  108.3490 O.3     1  UNL1       -0.3732
     80 O           8.9260   21.9620  108.1290 O.3     1  UNL1       -0.3769
     81 O          12.1610   25.0330  113.8800 O.3     1  UNL1       -0.4563
@<TRIPOS>BOND
     1    18    65    1
     2    37    65    1
     3    43    65    1
     4    20    67    1
     5    65    52    1
     6     5    50    1
     7    28    54    1
     8    17    64    1
     9    19    66    1
    10    39    67    1
    11    67    80    1
    12    67    29    1
    13    44    66    1
    14    80    56    1
    15    36    64    1
    16     1    77    1
    17    79    66    1
    18    79    55    1
    19    66    38    1
    20    64    50    1
    21    64    42    1
    22    52     7    1
    23    52    53    1
    24    52    51    1
    25    50    51    1
    26    50    49    1
    27    54    53    2
    28    54    55    1
    29     4    49    1
    30    53    27    1
    31    55    56    1
    32    55     8    1
    33    51     6    1
    34    51    78    1
    35    77    49    1
    36    49    48    1
    37    56     9    1
    38    56    57    1
    39    10    57    1
    40    35    63    1
    41    30    57    1
    42    57    58    1
    43    78    47    1
    44    26    75    1
    45    48    76    1
    46    48     3    1
    47    48    47    1
    48    76    63    1
    49    63    41    1
    50    63    16    1
    51    47    75    1
    52    47    46    1
    53    58    31    1
    54    58    59    1
    55    58    11    1
    56    12    59    1
    57    32    59    1
    58    59    60    1
    59     2    46    1
    60    46    45    1
    61    46    62    1
    62    74    45    2
    63    45    81    1
    64    40    62    1
    65    14    61    1
    66    60    33    1
    67    60    61    1
    68    60    13    1
    69    81    61    1
    70    62    15    1
    71    62    34    1
    72    61    68    1
    73    25    73    1
    74    68    73   ar
    75    68    69   ar
    76    73    72   ar
    77    21    69    1
    78    69    70   ar
    79    72    24    1
    80    72    71   ar
    81    70    71   ar
    82    70    22    1
    83    71    23    1
