@<TRIPOS>MOLECULE
145.10099
 81 83 0 0 0
SMALL
GASTEIGER

@<TRIPOS>ATOM
      1 H          18.9550   25.3190  114.3490 H       1  UNL1        0.2099
      2 H          13.4200   27.4430  113.3730 H       1  UNL1        0.0465
      3 H          16.9100   28.0500  114.0760 H       1  UNL1        0.0676
      4 H          18.4410   26.6180  112.6480 H       1  UNL1        0.0624
      5 H          17.8750   24.1770  112.6010 H       1  UNL1        0.0349
      6 H          16.1380   24.0790  114.2920 H       1  UNL1        0.0606
      7 H          14.8190   23.4620  111.6000 H       1  UNL1        0.0365
      8 H          11.6520   21.6860  114.1900 H       1  UNL1        0.0666
      9 H          11.3410   21.3970  116.4550 H       1  UNL1        0.0625
     10 H          12.2880   23.5930  115.6800 H       1  UNL1        0.0291
     11 H          12.9190   22.8860  118.5790 H       1  UNL1        0.0266
     12 H          13.6330   25.2210  117.5420 H       1  UNL1        0.0267
     13 H          11.8600   26.8990  118.0940 H       1  UNL1        0.0304
     14 H          10.8200   25.0810  115.8990 H       1  UNL1        0.0785
     15 H          15.1390   29.2710  115.1210 H       1  UNL1        0.0239
     16 H          17.1320   29.6250  112.4100 H       1  UNL1        0.0524
     17 H          16.7500   24.2500  110.4840 H       1  UNL1        0.0234
     18 H          16.9980   22.3110  111.6730 H       1  UNL1        0.0236
     19 H          11.5630   18.3220  113.1970 H       1  UNL1        0.0524
     20 H          14.8280   19.8750  117.7840 H       1  UNL1        0.0524
     21 H          10.6670   28.5640  117.2910 H       1  UNL1        0.0621
     22 H           8.8890   30.1230  116.6400 H       1  UNL1        0.0618
     23 H           7.3540   29.5740  114.7700 H       1  UNL1        0.0618
     24 H           7.6180   27.4330  113.5440 H       1  UNL1        0.0618
     25 H           9.3920   25.8460  114.1850 H       1  UNL1        0.0621
     26 H          16.6220   26.0340  115.4790 H       1  UNL1        0.2129
     27 H          13.1280   23.4050  113.3050 H       1  UNL1        0.0573
     28 H          14.5620   20.7890  114.0380 H       1  UNL1        0.0595
     29 H          14.5490   19.6740  116.0570 H       1  UNL1        0.0524
     30 H          13.8530   23.1310  116.3310 H       1  UNL1        0.0291
     31 H          11.3030   23.2890  118.0110 H       1  UNL1        0.0266
     32 H          12.8890   25.0880  119.1220 H       1  UNL1        0.0267
     33 H          10.6620   25.6460  118.2160 H       1  UNL1        0.0304
     34 H          13.5080   29.6620  114.5650 H       1  UNL1        0.0239
     35 H          17.9760   28.3870  111.4240 H       1  UNL1        0.0524
     36 H          17.6430   25.7570  110.5880 H       1  UNL1        0.0234
     37 H          15.7240   21.1370  111.9290 H       1  UNL1        0.0236
     38 H          10.7110   19.8770  113.1260 H       1  UNL1        0.0524
     39 H          15.0040   21.2800  116.7260 H       1  UNL1        0.0524
     40 H          14.7830   29.4540  113.3900 H       1  UNL1        0.0239
     41 H          16.5750   29.2470  110.7680 H       1  UNL1        0.0524
     42 H          15.8900   25.7350  110.8690 H       1  UNL1        0.0234
     43 H          16.6810   21.7220  113.3070 H       1  UNL1        0.0236
     44 H          12.3540   19.7100  112.4240 H       1  UNL1        0.0524
     45 C          13.2040   27.2770  115.4830 C.2     1  UNL1        0.3158
     46 C          14.0610   27.5670  114.2560 C.3     1  UNL1        0.1098
     47 C          15.2850   26.6080  114.1610 C.3     1  UNL1        0.2096
     48 C          16.5090   27.2620  113.4250 C.3     1  UNL1        0.1386
     49 C          17.6090   26.2010  113.2240 C.3     1  UNL1        0.0913
     50 C          17.0840   24.9340  112.5320 C.3     1  UNL1        0.0117
     51 C          15.8380   24.3970  113.2850 C.3     1  UNL1        0.0730
     52 C          15.1890   23.1530  112.5860 C.3     1  UNL1        0.0011
     53 C          13.9490   22.6860  113.3290 C.2     1  UNL1       -0.0802
     54 C          13.7680   21.5250  113.9860 C.2     1  UNL1       -0.0568
     55 C          12.4770   21.1420  114.6740 C.3     1  UNL1        0.1025
     56 C          12.4020   21.5100  116.1930 C.3     1  UNL1        0.0879
     57 C          12.7730   22.9830  116.4430 C.3     1  UNL1       -0.0239
     58 C          12.3690   23.4720  117.8330 C.3     1  UNL1       -0.0505
     59 C          12.7000   24.9520  118.0490 C.3     1  UNL1       -0.0493
     60 C          11.5760   25.9280  117.6760 C.3     1  UNL1       -0.0114
     61 C          11.2410   26.0560  116.1720 C.3     1  UNL1        0.1280
     62 C          14.4020   29.0670  114.3370 C.3     1  UNL1       -0.0472
     63 C          17.0060   28.8210  111.6780 C.3     1  UNL1        0.0371
     64 C          16.8220   25.1900  111.0400 C.3     1  UNL1       -0.0576
     65 C          16.2050   22.0200  112.3660 C.3     1  UNL1       -0.0566
     66 C          11.6930   19.4070  113.2410 C.3     1  UNL1        0.0373
     67 C          14.4280   20.3670  116.8920 C.3     1  UNL1        0.0369
     68 C          10.1490   27.0580  115.8150 C.ar    1  UNL1       -0.0073
     69 C           9.9950   28.2820  116.4830 C.ar    1  UNL1       -0.0551
     70 C           8.9920   29.1800  116.1100 C.ar    1  UNL1       -0.0614
     71 C           8.1320   28.8730  115.0590 C.ar    1  UNL1       -0.0617
     72 C           8.2800   27.6710  114.3720 C.ar    1  UNL1       -0.0614
     73 C           9.2840   26.7740  114.7430 C.ar    1  UNL1       -0.0551
     74 O          13.2110   27.9740  116.4930 O.2     1  UNL1       -0.2503
     75 O          15.6630   26.2300  115.4900 O.3     1  UNL1       -0.3619
     76 O          16.1110   27.8290  112.1660 O.3     1  UNL1       -0.3718
     77 O          18.1470   25.8440  114.5090 O.3     1  UNL1       -0.3887
     78 O          14.8490   25.4370  113.4280 O.3     1  UNL1       -0.3415
     79 O          12.2560   19.7350  114.5040 O.3     1  UNL1       -0.3732
     80 O          13.0580   20.6350  117.1220 O.3     1  UNL1       -0.3769
     81 O          12.3600   26.2330  115.2720 O.3     1  UNL1       -0.4563
@<TRIPOS>BOND
     1    17    64    1
     2    36    64    1
     3    41    63    1
     4    42    64    1
     5    64    50    1
     6    35    63    1
     7     7    52    1
     8    18    65    1
     9    63    76    1
    10    63    16    1
    11    37    65    1
    12    76    48    1
    13    65    52    1
    14    65    43    1
    15    44    66    1
    16    50     5    1
    17    50    49    1
    18    50    51    1
    19    52    51    1
    20    52    53    1
    21     4    49    1
    22    38    66    1
    23    19    66    1
    24    49    48    1
    25    49    77    1
    26    66    79    1
    27    51    78    1
    28    51     6    1
    29    27    53    1
    30    53    54    2
    31     2    46    1
    32    40    62    1
    33    48     3    1
    34    48    47    1
    35    78    47    1
    36    24    72    1
    37    54    28    1
    38    54    55    1
    39    47    46    1
    40    47    75    1
    41    25    73    1
    42     8    55    1
    43    46    62    1
    44    46    45    1
    45    62    34    1
    46    62    15    1
    47     1    77    1
    48    72    73   ar
    49    72    71   ar
    50    79    55    1
    51    55    56    1
    52    73    68   ar
    53    23    71    1
    54    71    70   ar
    55    81    45    1
    56    81    61    1
    57    26    75    1
    58    45    74    2
    59    10    57    1
    60    68    61    1
    61    68    69   ar
    62    14    61    1
    63    29    67    1
    64    70    69   ar
    65    70    22    1
    66    61    60    1
    67    56    57    1
    68    56     9    1
    69    56    80    1
    70    30    57    1
    71    57    58    1
    72    69    21    1
    73    39    67    1
    74    67    80    1
    75    67    20    1
    76    12    59    1
    77    60    59    1
    78    60    13    1
    79    60    33    1
    80    58    31    1
    81    58    59    1
    82    58    11    1
    83    59    32    1
