@<TRIPOS>MOLECULE
130.51425
 81 83 0 0 0
SMALL
GASTEIGER

@<TRIPOS>ATOM
      1 H          18.9300   29.6350  116.0840 H       1  UNL1        0.2099
      2 H          14.3120   26.4350  114.2830 H       1  UNL1        0.0465
      3 H          16.3190   29.1340  113.9370 H       1  UNL1        0.0676
      4 H          18.7620   28.4150  114.2350 H       1  UNL1        0.0624
      5 H          19.2810   27.3490  116.4340 H       1  UNL1        0.0349
      6 H          17.1520   27.7820  117.5700 H       1  UNL1        0.0606
      7 H          17.3220   24.7460  117.3420 H       1  UNL1        0.0365
      8 H          15.6890   24.7280  121.9710 H       1  UNL1        0.0666
      9 H          13.8170   24.9200  120.1400 H       1  UNL1        0.0625
     10 H          13.9910   27.3760  119.7760 H       1  UNL1        0.0291
     11 H          11.3350   26.6490  121.1310 H       1  UNL1        0.0266
     12 H          11.6200   29.0560  120.5010 H       1  UNL1        0.0267
     13 H          11.6660   29.7900  118.2500 H       1  UNL1        0.0304
     14 H          11.2990   26.8430  117.4840 H       1  UNL1        0.0785
     15 H          13.5580   29.4050  114.2860 H       1  UNL1        0.0239
     16 H          16.5220   28.5180  111.7270 H       1  UNL1        0.0524
     17 H          19.1180   25.0560  115.6550 H       1  UNL1        0.0234
     18 H          19.6320   25.5310  117.7720 H       1  UNL1        0.0236
     19 H          15.7380   27.4170  124.1940 H       1  UNL1        0.0524
     20 H          12.4510   23.3810  122.9640 H       1  UNL1        0.0524
     21 H          10.6900   30.2290  115.8970 H       1  UNL1        0.0621
     22 H           8.4440   30.9550  115.1680 H       1  UNL1        0.0618
     23 H           6.4690   29.5130  115.5880 H       1  UNL1        0.0618
     24 H           6.7480   27.3380  116.7470 H       1  UNL1        0.0618
     25 H           8.9810   26.6000  117.4880 H       1  UNL1        0.0621
     26 H          16.1610   29.4190  116.3630 H       1  UNL1        0.2129
     27 H          15.3350   25.5480  118.5480 H       1  UNL1        0.0573
     28 H          17.4940   25.7980  120.7150 H       1  UNL1        0.0595
     29 H          12.5360   23.3240  121.1920 H       1  UNL1        0.0524
     30 H          13.5130   27.6820  121.4460 H       1  UNL1        0.0291
     31 H          11.7330   26.1580  119.4950 H       1  UNL1        0.0266
     32 H          10.2760   28.2430  119.7200 H       1  UNL1        0.0267
     33 H          13.0080   28.7000  118.4020 H       1  UNL1        0.0304
     34 H          12.6110   28.1190  113.5230 H       1  UNL1        0.0239
     35 H          18.1620   27.9390  112.1600 H       1  UNL1        0.0524
     36 H          19.3040   26.0650  114.2270 H       1  UNL1        0.0234
     37 H          18.9730   24.8190  119.2250 H       1  UNL1        0.0236
     38 H          14.2080   26.7360  123.6360 H       1  UNL1        0.0524
     39 H          14.0320   23.2120  122.1760 H       1  UNL1        0.0524
     40 H          14.2320   28.4750  112.9400 H       1  UNL1        0.0239
     41 H          17.0240   26.8630  111.3330 H       1  UNL1        0.0524
     42 H          17.7170   25.3970  114.6530 H       1  UNL1        0.0234
     43 H          19.0670   26.5880  119.0690 H       1  UNL1        0.0236
     44 H          15.5940   25.6580  124.0210 H       1  UNL1        0.0524
     45 C          13.1990   27.0590  115.9390 C.2     1  UNL1        0.3158
     46 C          14.1910   27.3790  114.8310 C.3     1  UNL1        0.1098
     47 C          15.5440   27.7980  115.4610 C.3     1  UNL1        0.2096
     48 C          16.5990   28.1580  114.3570 C.3     1  UNL1        0.1386
     49 C          17.9930   28.2890  115.0050 C.3     1  UNL1        0.0913
     50 C          18.3570   27.0900  115.9020 C.3     1  UNL1        0.0117
     51 C          17.2360   26.8820  116.9460 C.3     1  UNL1        0.0730
     52 C          17.4460   25.6750  117.9160 C.3     1  UNL1        0.0011
     53 C          16.3360   25.6420  118.9720 C.2     1  UNL1       -0.0802
     54 C          16.4900   25.7020  120.3080 C.2     1  UNL1       -0.0568
     55 C          15.4540   25.6410  121.4090 C.3     1  UNL1        0.1025
     56 C          13.9490   25.5960  120.9940 C.3     1  UNL1        0.0879
     57 C          13.4010   26.9830  120.6090 C.3     1  UNL1       -0.0239
     58 C          11.9100   26.9370  120.2430 C.3     1  UNL1       -0.0505
     59 C          11.3700   28.2890  119.7580 C.3     1  UNL1       -0.0493
     60 C          11.9130   28.7300  118.3950 C.3     1  UNL1       -0.0114
     61 C          11.3770   27.9000  117.2140 C.3     1  UNL1        0.1280
     62 C          13.6200   28.4050  113.8430 C.3     1  UNL1       -0.0472
     63 C          17.1090   27.6630  112.0740 C.3     1  UNL1        0.0371
     64 C          18.6320   25.8350  115.0610 C.3     1  UNL1       -0.0576
     65 C          18.8550   25.6580  118.5300 C.3     1  UNL1       -0.0566
     66 C          15.2930   26.6190  123.5920 C.3     1  UNL1        0.0373
     67 C          13.0450   23.6760  122.0950 C.3     1  UNL1        0.0369
     68 C          10.0060   28.3620  116.7510 C.ar    1  UNL1       -0.0073
     69 C           9.8320   29.5900  116.0930 C.ar    1  UNL1       -0.0551
     70 C           8.5640   30.0020  115.6770 C.ar    1  UNL1       -0.0614
     71 C           7.4550   29.1930  115.9130 C.ar    1  UNL1       -0.0617
     72 C           7.6120   27.9710  116.5640 C.ar    1  UNL1       -0.0614
     73 C           8.8780   27.5580  116.9820 C.ar    1  UNL1       -0.0551
     74 O          13.2120   26.0190  116.5900 O.2     1  UNL1       -0.2503
     75 O          15.3120   28.9370  116.2980 O.3     1  UNL1       -0.3619
     76 O          16.6030   27.1750  113.3100 O.3     1  UNL1       -0.3718
     77 O          18.0090   29.4890  115.7980 O.3     1  UNL1       -0.3887
     78 O          15.9960   26.6880  116.2510 O.3     1  UNL1       -0.3415
     79 O          15.7690   26.7600  122.2610 O.3     1  UNL1       -0.3732
     80 O          13.1430   25.0940  122.0850 O.3     1  UNL1       -0.3769
     81 O          12.2920   28.0610  116.1140 O.3     1  UNL1       -0.4563
@<TRIPOS>BOND
     1    41    63    1
     2    16    63    1
     3    63    35    1
     4    63    76    1
     5    40    62    1
     6    76    48    1
     7    34    62    1
     8    62    15    1
     9    62    46    1
    10     3    48    1
    11    36    64    1
    12     4    49    1
    13     2    46    1
    14    48    49    1
    15    48    47    1
    16    42    64    1
    17    46    47    1
    18    46    45    1
    19    49    77    1
    20    49    50    1
    21    64    17    1
    22    64    50    1
    23    22    70    1
    24    47    78    1
    25    47    75    1
    26    23    71    1
    27    70    71   ar
    28    70    69   ar
    29    77     1    1
    30    21    69    1
    31    50     5    1
    32    50    51    1
    33    71    72   ar
    34    45    81    1
    35    45    74    2
    36    69    68   ar
    37    81    61    1
    38    78    51    1
    39    75    26    1
    40    72    24    1
    41    72    73   ar
    42    68    73   ar
    43    68    61    1
    44    51     6    1
    45    51    52    1
    46    73    25    1
    47    61    14    1
    48    61    60    1
    49     7    52    1
    50    18    65    1
    51    52    65    1
    52    52    53    1
    53    13    60    1
    54    60    33    1
    55    60    59    1
    56    65    43    1
    57    65    37    1
    58    27    53    1
    59    53    54    2
    60    31    58    1
    61    32    59    1
    62    59    58    1
    63    59    12    1
    64    10    57    1
    65     9    56    1
    66    58    57    1
    67    58    11    1
    68    54    28    1
    69    54    55    1
    70    57    56    1
    71    57    30    1
    72    56    55    1
    73    56    80    1
    74    29    67    1
    75    55     8    1
    76    55    79    1
    77    80    67    1
    78    67    39    1
    79    67    20    1
    80    79    66    1
    81    66    38    1
    82    66    44    1
    83    66    19    1
