@<TRIPOS>MOLECULE
148.25159
 81 83 0 0 0
SMALL
GASTEIGER

@<TRIPOS>ATOM
      1 H          18.1450   26.6750  115.5620 H       1  UNL1        0.2099
      2 H          12.3380   25.6290  114.2410 H       1  UNL1        0.0465
      3 H          15.4890   28.0060  113.8560 H       1  UNL1        0.0676
      4 H          17.6990   26.7380  113.3980 H       1  UNL1        0.0624
      5 H          17.9040   24.5420  114.5910 H       1  UNL1        0.0349
      6 H          15.9190   24.7520  115.9960 H       1  UNL1        0.0606
      7 H          15.3040   22.3140  114.2920 H       1  UNL1        0.0365
      8 H          12.7690   22.3850  118.1540 H       1  UNL1        0.0666
      9 H          14.5990   22.2770  120.5450 H       1  UNL1        0.0625
     10 H          12.0020   22.7330  120.4900 H       1  UNL1        0.0291
     11 H          13.0350   25.6210  120.2730 H       1  UNL1        0.0266
     12 H          11.1150   24.1800  118.3840 H       1  UNL1        0.0267
     13 H          12.4060   26.9630  118.2690 H       1  UNL1        0.0304
     14 H          12.2430   25.5020  116.1530 H       1  UNL1        0.0785
     15 H          13.0810   27.6170  112.1270 H       1  UNL1        0.0239
     16 H          15.3950   28.7320  111.6650 H       1  UNL1        0.0524
     17 H          17.1830   23.1500  112.7350 H       1  UNL1        0.0234
     18 H          17.7310   22.1860  114.7110 H       1  UNL1        0.0236
     19 H          12.6500   18.9080  118.6000 H       1  UNL1        0.0524
     20 H          16.3630   25.3020  120.2180 H       1  UNL1        0.0524
     21 H           9.0200   27.4660  116.4870 H       1  UNL1        0.0621
     22 H           6.8320   26.5690  115.7770 H       1  UNL1        0.0618
     23 H           6.6480   24.2440  114.9310 H       1  UNL1        0.0618
     24 H           8.6690   22.8120  114.7980 H       1  UNL1        0.0618
     25 H          10.8630   23.6880  115.5050 H       1  UNL1        0.0621
     26 H          15.4330   26.8850  116.0120 H       1  UNL1        0.2129
     27 H          13.6320   22.8830  116.0040 H       1  UNL1        0.0573
     28 H          15.7810   21.7380  117.8790 H       1  UNL1        0.0595
     29 H          15.1420   24.8000  121.4030 H       1  UNL1        0.0524
     30 H          13.0400   23.5930  121.6040 H       1  UNL1        0.0291
     31 H          11.3970   25.1130  120.6380 H       1  UNL1        0.0266
     32 H          12.8060   24.5230  118.0040 H       1  UNL1        0.0267
     33 H          10.6900   26.6570  118.4930 H       1  UNL1        0.0304
     34 H          11.5790   26.7460  112.3500 H       1  UNL1        0.0239
     35 H          16.9970   27.9270  111.6210 H       1  UNL1        0.0524
     36 H          17.6830   24.6980  112.0630 H       1  UNL1        0.0234
     37 H          16.9100   21.0690  115.7860 H       1  UNL1        0.0236
     38 H          11.7610   20.3340  118.0300 H       1  UNL1        0.0524
     39 H          16.4260   23.6600  120.8880 H       1  UNL1        0.0524
     40 H          13.0370   25.8380  111.9460 H       1  UNL1        0.0239
     41 H          15.7770   27.5630  110.3850 H       1  UNL1        0.0524
     42 H          15.9610   24.3030  112.2250 H       1  UNL1        0.0234
     43 H          17.5090   22.6200  116.4090 H       1  UNL1        0.0236
     44 H          13.2560   19.7980  117.1920 H       1  UNL1        0.0524
     45 C          12.3850   27.7050  114.7760 C.2     1  UNL1        0.3158
     46 C          12.9400   26.5110  114.0170 C.3     1  UNL1        0.1098
     47 C          14.4070   26.2330  114.4630 C.3     1  UNL1        0.2096
     48 C          15.5350   26.9330  113.6270 C.3     1  UNL1        0.1386
     49 C          16.9110   26.3730  114.0660 C.3     1  UNL1        0.0913
     50 C          16.9580   24.8260  114.1120 C.3     1  UNL1        0.0117
     51 C          15.7970   24.3220  114.9920 C.3     1  UNL1        0.0730
     52 C          15.6860   22.7800  115.2100 C.3     1  UNL1        0.0011
     53 C          14.6280   22.5400  116.2860 C.2     1  UNL1       -0.0802
     54 C          14.8040   22.0610  117.5330 C.2     1  UNL1       -0.0568
     55 C          13.7160   22.0480  118.5850 C.3     1  UNL1        0.1025
     56 C          14.0780   22.9330  119.8320 C.3     1  UNL1        0.0879
     57 C          12.8060   23.4770  120.5380 C.3     1  UNL1       -0.0239
     58 C          12.2870   24.8500  120.0550 C.3     1  UNL1       -0.0505
     59 C          11.9410   24.8750  118.5720 C.3     1  UNL1       -0.0493
     60 C          11.5970   26.2650  118.0210 C.3     1  UNL1       -0.0114
     61 C          11.4570   26.1810  116.4870 C.3     1  UNL1        0.1280
     62 C          12.6610   26.6880  112.5240 C.3     1  UNL1       -0.0472
     63 C          15.9260   27.8010  111.4420 C.3     1  UNL1        0.0371
     64 C          16.9390   24.2160  112.7060 C.3     1  UNL1       -0.0576
     65 C          17.0330   22.1320  115.5510 C.3     1  UNL1       -0.0566
     66 C          12.7590   19.9030  118.1610 C.3     1  UNL1        0.0373
     67 C          15.7560   24.4610  120.5640 C.3     1  UNL1        0.0369
     68 C          10.1060   25.6440  116.0530 C.ar    1  UNL1       -0.0073
     69 C           8.9540   26.4420  116.1240 C.ar    1  UNL1       -0.0551
     70 C           7.7150   25.9390  115.7220 C.ar    1  UNL1       -0.0614
     71 C           7.6130   24.6340  115.2460 C.ar    1  UNL1       -0.0617
     72 C           8.7480   23.8290  115.1720 C.ar    1  UNL1       -0.0614
     73 C           9.9870   24.3300  115.5730 C.ar    1  UNL1       -0.0551
     74 O          12.5880   28.8550  114.3860 O.2     1  UNL1       -0.2503
     75 O          14.5040   26.6240  115.8450 O.3     1  UNL1       -0.3619
     76 O          15.3960   26.7300  112.2150 O.3     1  UNL1       -0.3718
     77 O          17.2110   26.8900  115.3750 O.3     1  UNL1       -0.3887
     78 O          14.5580   24.7950  114.4240 O.3     1  UNL1       -0.3415
     79 O          13.5330   20.6980  119.0510 O.3     1  UNL1       -0.3732
     80 O          14.9490   24.0210  119.4800 O.3     1  UNL1       -0.3769
     81 O          11.6540   27.4900  115.9030 O.3     1  UNL1       -0.4563
@<TRIPOS>BOND
     1    41    63    1
     2    63    35    1
     3    63    16    1
     4    63    76    1
     5    40    62    1
     6    36    64    1
     7    15    62    1
     8    76    48    1
     9    42    64    1
    10    34    62    1
    11    62    46    1
    12    64    17    1
    13    64    50    1
    14     4    49    1
    15    48     3    1
    16    48    49    1
    17    48    47    1
    18    46     2    1
    19    46    47    1
    20    46    45    1
    21    49    50    1
    22    49    77    1
    23    50     5    1
    24    50    51    1
    25     7    52    1
    26    74    45    2
    27    78    47    1
    28    78    51    1
    29    47    75    1
    30    18    65    1
    31    45    81    1
    32    24    72    1
    33    23    71    1
    34    51    52    1
    35    51     6    1
    36    72    71   ar
    37    72    73   ar
    38    52    65    1
    39    52    53    1
    40    71    70   ar
    41    77     1    1
    42    25    73    1
    43    65    37    1
    44    65    43    1
    45    73    68   ar
    46    70    22    1
    47    70    69   ar
    48    75    26    1
    49    81    61    1
    50    27    53    1
    51    68    69   ar
    52    68    61    1
    53    69    21    1
    54    14    61    1
    55    53    54    2
    56    61    60    1
    57    44    66    1
    58    54    28    1
    59    54    55    1
    60    32    59    1
    61    60    13    1
    62    60    33    1
    63    60    59    1
    64    38    66    1
    65     8    55    1
    66    66    19    1
    67    66    79    1
    68    12    59    1
    69    59    58    1
    70    55    79    1
    71    55    56    1
    72    80    56    1
    73    80    67    1
    74    56    57    1
    75    56     9    1
    76    58    11    1
    77    58    57    1
    78    58    31    1
    79    20    67    1
    80    10    57    1
    81    57    30    1
    82    67    39    1
    83    67    29    1
