@<TRIPOS>MOLECULE
160.80360
 81 83 0 0 0
SMALL
GASTEIGER

@<TRIPOS>ATOM
      1 H          12.9950   26.0080  109.0800 H       1  UNL1        0.2099
      2 H          14.4710   27.9940  114.3120 H       1  UNL1        0.0465
      3 H          14.8350   25.9460  111.9530 H       1  UNL1        0.0676
      4 H          14.7890   27.1480  109.6950 H       1  UNL1        0.0624
      5 H          12.6020   28.3260  109.1950 H       1  UNL1        0.0349
      6 H          11.3850   27.4580  111.0800 H       1  UNL1        0.0606
      7 H          10.5570   29.5530  110.0880 H       1  UNL1        0.0365
      8 H          11.7590   33.5000  111.9240 H       1  UNL1        0.0666
      9 H          12.4120   34.4320  113.9710 H       1  UNL1        0.0625
     10 H          14.2490   33.4670  113.3340 H       1  UNL1        0.0291
     11 H          13.9850   32.7440  115.9690 H       1  UNL1        0.0266
     12 H          14.9280   30.2260  114.5490 H       1  UNL1        0.0267
     13 H          13.6890   30.7010  117.3020 H       1  UNL1        0.0304
     14 H          15.1060   28.2310  116.1570 H       1  UNL1        0.0785
     15 H          13.6850   25.0400  114.7150 H       1  UNL1        0.0239
     16 H          17.0420   26.5730  112.2520 H       1  UNL1        0.0524
     17 H          13.4680   30.4590  109.6480 H       1  UNL1        0.0234
     18 H           9.2400   28.1010  111.5270 H       1  UNL1        0.0236
     19 H           8.4820   34.7640  112.0770 H       1  UNL1        0.0524
     20 H          10.7610   32.0820  116.7390 H       1  UNL1        0.0524
     21 H          12.5560   28.4910  118.8890 H       1  UNL1        0.0621
     22 H          13.0310   27.8110  121.2100 H       1  UNL1        0.0618
     23 H          15.3390   27.2060  121.8910 H       1  UNL1        0.0618
     24 H          17.1800   27.2870  120.2310 H       1  UNL1        0.0618
     25 H          16.7280   27.9630  117.9040 H       1  UNL1        0.0621
     26 H          12.4180   25.6660  111.7810 H       1  UNL1        0.2129
     27 H          11.9640   31.4050  110.7930 H       1  UNL1        0.0573
     28 H          10.1800   31.2160  113.2550 H       1  UNL1        0.0595
     29 H           9.8690   32.3140  115.2380 H       1  UNL1        0.0524
     30 H          13.5730   31.8970  113.0750 H       1  UNL1        0.0291
     31 H          15.4040   32.4550  114.9880 H       1  UNL1        0.0266
     32 H          13.2130   30.3770  114.8890 H       1  UNL1        0.0267
     33 H          15.4240   30.5720  116.9960 H       1  UNL1        0.0304
     34 H          14.6930   25.9480  115.8300 H       1  UNL1        0.0239
     35 H          16.8060   27.3420  110.6490 H       1  UNL1        0.0524
     36 H          14.9030   29.4640  109.6640 H       1  UNL1        0.0234
     37 H           8.8010   29.7790  111.8250 H       1  UNL1        0.0236
     38 H          10.0150   34.8050  111.1850 H       1  UNL1        0.0524
     39 H          11.2700   31.1880  115.3060 H       1  UNL1        0.0524
     40 H          15.2730   25.6360  114.1960 H       1  UNL1        0.0239
     41 H          17.4770   28.2740  112.0000 H       1  UNL1        0.0524
     42 H          14.1900   29.9900  111.1990 H       1  UNL1        0.0234
     43 H           9.8300   28.9070  112.9850 H       1  UNL1        0.0236
     44 H           9.0570   33.2900  111.2770 H       1  UNL1        0.0524
     45 C          12.6480   27.5670  115.2910 C.2     1  UNL1        0.3158
     46 C          13.7390   27.1860  114.3030 C.3     1  UNL1        0.1098
     47 C          13.2240   27.1100  112.8370 C.3     1  UNL1        0.2096
     48 C          14.4350   26.9630  111.8400 C.3     1  UNL1        0.1386
     49 C          13.9390   27.1290  110.3860 C.3     1  UNL1        0.0913
     50 C          13.0760   28.3940  110.1840 C.3     1  UNL1        0.0117
     51 C          11.9500   28.3860  111.2430 C.3     1  UNL1        0.0730
     52 C          10.8670   29.5070  111.1420 C.3     1  UNL1        0.0011
     53 C          11.2990   30.9210  111.5010 C.2     1  UNL1       -0.0802
     54 C          10.8810   31.6520  112.5520 C.2     1  UNL1       -0.0568
     55 C          11.2520   33.0960  112.8120 C.3     1  UNL1        0.1025
     56 C          12.2210   33.3500  114.0170 C.3     1  UNL1        0.0879
     57 C          13.6160   32.7060  113.8130 C.3     1  UNL1       -0.0239
     58 C          14.3350   32.2190  115.0750 C.3     1  UNL1       -0.0505
     59 C          14.2030   30.7020  115.2200 C.3     1  UNL1       -0.0493
     60 C          14.4400   30.2290  116.6540 C.3     1  UNL1       -0.0114
     61 C          14.3410   28.6990  116.7790 C.3     1  UNL1        0.1280
     62 C          14.3830   25.8820  114.7820 C.3     1  UNL1       -0.0472
     63 C          16.7610   27.4930  111.7300 C.3     1  UNL1        0.0371
     64 C          13.9580   29.6440  110.1870 C.3     1  UNL1       -0.0576
     65 C           9.6160   29.0520  111.9210 C.3     1  UNL1       -0.0566
     66 C           9.3740   34.1850  111.8190 C.3     1  UNL1        0.0373
     67 C          10.8650   32.1390  115.6520 C.3     1  UNL1        0.0369
     68 C          14.6030   28.2680  118.2140 C.ar    1  UNL1       -0.0073
     69 C          13.5750   28.2270  119.1680 C.ar    1  UNL1       -0.0551
     70 C          13.8390   27.8440  120.4840 C.ar    1  UNL1       -0.0614
     71 C          15.1350   27.5040  120.8650 C.ar    1  UNL1       -0.0617
     72 C          16.1680   27.5480  119.9320 C.ar    1  UNL1       -0.0614
     73 C          15.9060   27.9300  118.6150 C.ar    1  UNL1       -0.0551
     74 O          11.4740   27.2260  115.1740 O.2     1  UNL1       -0.2503
     75 O          12.3710   25.9690  112.7090 O.3     1  UNL1       -0.3619
     76 O          15.4670   27.9190  112.1380 O.3     1  UNL1       -0.3718
     77 O          13.1630   25.9680  110.0400 O.3     1  UNL1       -0.3887
     78 O          12.5080   28.3290  112.5610 O.3     1  UNL1       -0.3415
     79 O          10.0450   33.8450  113.0250 O.3     1  UNL1       -0.3732
     80 O          11.7220   33.2230  115.3550 O.3     1  UNL1       -0.3769
     81 O          13.0090   28.2710  116.3970 O.3     1  UNL1       -0.4563
@<TRIPOS>BOND
     1     1    77    1
     2     5    50    1
     3    17    64    1
     4    36    64    1
     5     4    49    1
     6    77    49    1
     7     7    52    1
     8    50    64    1
     9    50    49    1
    10    50    51    1
    11    64    42    1
    12    49    48    1
    13    35    63    1
    14    27    53    1
    15     6    51    1
    16    52    51    1
    17    52    53    1
    18    52    65    1
    19    38    66    1
    20    51    78    1
    21    44    66    1
    22    53    54    2
    23    18    65    1
    24    63    41    1
    25    63    76    1
    26    63    16    1
    27    26    75    1
    28    66    19    1
    29    66    79    1
    30    37    65    1
    31    48     3    1
    32    48    76    1
    33    48    47    1
    34    65    43    1
    35     8    55    1
    36    54    55    1
    37    54    28    1
    38    78    47    1
    39    75    47    1
    40    55    79    1
    41    55    56    1
    42    47    46    1
    43    30    57    1
    44    10    57    1
    45    57    56    1
    46    57    58    1
    47     9    56    1
    48    56    80    1
    49    40    62    1
    50    46     2    1
    51    46    62    1
    52    46    45    1
    53    12    59    1
    54    15    62    1
    55    62    34    1
    56    32    59    1
    57    31    58    1
    58    58    59    1
    59    58    11    1
    60    74    45    2
    61    59    60    1
    62    29    67    1
    63    45    81    1
    64    39    67    1
    65    80    67    1
    66    67    20    1
    67    14    61    1
    68    81    61    1
    69    60    61    1
    70    60    33    1
    71    60    13    1
    72    61    68    1
    73    25    73    1
    74    68    73   ar
    75    68    69   ar
    76    73    72   ar
    77    21    69    1
    78    69    70   ar
    79    72    24    1
    80    72    71   ar
    81    70    71   ar
    82    70    22    1
    83    71    23    1
