@<TRIPOS>MOLECULE
140.41671
 81 83 0 0 0
SMALL
GASTEIGER

@<TRIPOS>ATOM
      1 H          10.6610   25.5210  107.3290 H       1  UNL1        0.2099
      2 H          10.7340   24.0310  113.0660 H       1  UNL1        0.0465
      3 H           9.7750   23.3880  109.8510 H       1  UNL1        0.0676
      4 H          11.6990   23.7800  108.2270 H       1  UNL1        0.0624
      5 H          12.6920   26.0810  108.3170 H       1  UNL1        0.0349
      6 H          11.1190   27.1540  109.8400 H       1  UNL1        0.0606
      7 H          13.8300   27.0530  111.2530 H       1  UNL1        0.0365
      8 H          11.6340   30.0650  113.7140 H       1  UNL1        0.0666
      9 H          10.2110   32.0630  111.9490 H       1  UNL1        0.0625
     10 H           8.6190   32.1320  113.6210 H       1  UNL1        0.0291
     11 H           7.8050   29.8860  113.7950 H       1  UNL1        0.0266
     12 H          10.3750   29.2020  115.3070 H       1  UNL1        0.0267
     13 H           7.8320   27.6030  114.8010 H       1  UNL1        0.0304
     14 H          10.5090   26.8920  116.0740 H       1  UNL1        0.0785
     15 H           7.9970   23.5320  111.7860 H       1  UNL1        0.0239
     16 H          10.6140   21.2570  110.0970 H       1  UNL1        0.0524
     17 H          14.5840   25.4650  109.6700 H       1  UNL1        0.0234
     18 H          14.2280   27.6560  108.9020 H       1  UNL1        0.0236
     19 H          14.1220   32.5250  113.8970 H       1  UNL1        0.0524
     20 H           7.8810   29.9100  110.4020 H       1  UNL1        0.0524
     21 H           6.9330   25.8450  116.0390 H       1  UNL1        0.0621
     22 H           6.0860   24.0720  117.5130 H       1  UNL1        0.0618
     23 H           7.6590   22.6240  118.7710 H       1  UNL1        0.0618
     24 H          10.1060   22.9630  118.5380 H       1  UNL1        0.0618
     25 H          10.9790   24.7440  117.0700 H       1  UNL1        0.0621
     26 H           9.2930   25.8010  109.6810 H       1  UNL1        0.2129
     27 H          12.1960   28.0430  112.7100 H       1  UNL1        0.0573
     28 H          12.4280   30.4070  110.7560 H       1  UNL1        0.0595
     29 H           7.6230   31.1590  111.6350 H       1  UNL1        0.0524
     30 H          10.0570   31.8150  114.5610 H       1  UNL1        0.0291
     31 H           8.2100   30.4900  115.3890 H       1  UNL1        0.0266
     32 H           9.8970   28.5460  113.7310 H       1  UNL1        0.0267
     33 H           8.4060   28.1660  116.3610 H       1  UNL1        0.0304
     34 H           8.4660   22.9690  113.3940 H       1  UNL1        0.0239
     35 H          12.0120   21.7780  109.1030 H       1  UNL1        0.0524
     36 H          13.9340   23.9610  109.0340 H       1  UNL1        0.0234
     37 H          14.3700   29.1000  109.8870 H       1  UNL1        0.0236
     38 H          13.3460   31.1750  114.7470 H       1  UNL1        0.0524
     39 H           8.7310   31.4610  110.2580 H       1  UNL1        0.0524
     40 H           9.3190   22.3670  111.9810 H       1  UNL1        0.0239
     41 H          12.2710   21.0360  110.6890 H       1  UNL1        0.0524
     42 H          13.6270   24.4250  110.7200 H       1  UNL1        0.0234
     43 H          12.9010   28.8240  108.9270 H       1  UNL1        0.0236
     44 H          14.2510   30.8900  113.2230 H       1  UNL1        0.0524
     45 C           9.1990   25.4510  113.4410 C.2     1  UNL1        0.3158
     46 C           9.8550   24.4200  112.5340 C.3     1  UNL1        0.1098
     47 C          10.2930   25.0290  111.1790 C.3     1  UNL1        0.2096
     48 C          10.6940   23.9060  110.1570 C.3     1  UNL1        0.1386
     49 C          11.3190   24.5510  108.9040 C.3     1  UNL1        0.0913
     50 C          12.4460   25.5420  109.2410 C.3     1  UNL1        0.0117
     51 C          11.9390   26.5720  110.2810 C.3     1  UNL1        0.0730
     52 C          13.0300   27.5970  110.7330 C.3     1  UNL1        0.0011
     53 C          12.4610   28.5410  111.7750 C.2     1  UNL1       -0.0802
     54 C          12.2240   29.8610  111.6710 C.2     1  UNL1       -0.0568
     55 C          11.6130   30.6570  112.7960 C.3     1  UNL1        0.1025
     56 C          10.1480   31.1120  112.4970 C.3     1  UNL1        0.0879
     57 C           9.3840   31.3700  113.8180 C.3     1  UNL1       -0.0239
     58 C           8.6490   30.1640  114.4370 C.3     1  UNL1       -0.0505
     59 C           9.5170   28.9280  114.6820 C.3     1  UNL1       -0.0493
     60 C           8.7390   27.8090  115.3780 C.3     1  UNL1       -0.0114
     61 C           9.6020   26.5410  115.5620 C.3     1  UNL1        0.1280
     62 C           8.8540   23.2580  112.4100 C.3     1  UNL1       -0.0472
     63 C          11.6150   21.6970  110.1180 C.3     1  UNL1        0.0371
     64 C          13.7120   24.8040  109.6970 C.3     1  UNL1       -0.0576
     65 C          13.6620   28.3360  109.5450 C.3     1  UNL1       -0.0566
     66 C          13.5920   31.5790  113.7600 C.3     1  UNL1        0.0373
     67 C           8.3640   30.7120  110.9660 C.3     1  UNL1        0.0369
     68 C           9.0250   25.4600  116.4670 C.ar    1  UNL1       -0.0073
     69 C           7.6460   25.2430  116.5980 C.ar    1  UNL1       -0.0551
     70 C           7.1580   24.2290  117.4270 C.ar    1  UNL1       -0.0614
     71 C           8.0410   23.4140  118.1300 C.ar    1  UNL1       -0.0617
     72 C           9.4140   23.6050  117.9990 C.ar    1  UNL1       -0.0614
     73 C           9.9020   24.6170  117.1700 C.ar    1  UNL1       -0.0551
     74 O           7.9960   25.6850  113.4580 O.2     1  UNL1       -0.2503
     75 O           9.2040   25.7910  110.6540 O.3     1  UNL1       -0.3619
     76 O          11.5950   22.9640  110.7630 O.3     1  UNL1       -0.3718
     77 O          10.2850   25.2470  108.1860 O.3     1  UNL1       -0.3887
     78 O          11.4260   25.8810  111.4380 O.3     1  UNL1       -0.3415
     79 O          12.4070   31.8380  113.0170 O.3     1  UNL1       -0.3732
     80 O           9.4460   30.1520  111.6960 O.3     1  UNL1       -0.3769
     81 O          10.0980   25.9430  114.3400 O.3     1  UNL1       -0.4563
@<TRIPOS>BOND
     1     1    77    1
     2    77    49    1
     3     4    49    1
     4     5    50    1
     5    18    65    1
     6    49    50    1
     7    49    48    1
     8    43    65    1
     9    36    64    1
    10    35    63    1
    11    50    64    1
    12    50    51    1
    13    65    37    1
    14    65    52    1
    15    17    64    1
    16    26    75    1
    17    64    42    1
    18     6    51    1
    19     3    48    1
    20    16    63    1
    21    63    41    1
    22    63    76    1
    23    48    76    1
    24    48    47    1
    25    39    67    1
    26    51    52    1
    27    51    78    1
    28    20    67    1
    29    75    47    1
    30    52     7    1
    31    52    53    1
    32    28    54    1
    33    67    29    1
    34    67    80    1
    35    47    78    1
    36    47    46    1
    37    54    53    2
    38    54    55    1
    39    80    56    1
    40    53    27    1
    41    15    62    1
    42     9    56    1
    43    40    62    1
    44    62    46    1
    45    62    34    1
    46    56    55    1
    47    56    57    1
    48    46     2    1
    49    46    45    1
    50    55    79    1
    51    55     8    1
    52    79    66    1
    53    44    66    1
    54    45    74    2
    55    45    81    1
    56    10    57    1
    57    32    59    1
    58    66    19    1
    59    66    38    1
    60    11    58    1
    61    57    58    1
    62    57    30    1
    63    81    61    1
    64    58    59    1
    65    58    31    1
    66    59    12    1
    67    59    60    1
    68    13    60    1
    69    60    61    1
    70    60    33    1
    71    61    14    1
    72    61    68    1
    73    21    69    1
    74    68    69   ar
    75    68    73   ar
    76    69    70   ar
    77    25    73    1
    78    73    72   ar
    79    70    22    1
    80    70    71   ar
    81    72    71   ar
    82    72    24    1
    83    71    23    1
