@<TRIPOS>MOLECULE
135.59399
 81 83 0 0 0
SMALL
GASTEIGER

@<TRIPOS>ATOM
      1 H          18.6510   25.1060  114.5100 H       1  UNL1        0.2099
      2 H          13.6330   27.8820  113.2380 H       1  UNL1        0.0465
      3 H          16.7350   27.9330  114.4140 H       1  UNL1        0.0676
      4 H          18.2740   26.5700  112.8870 H       1  UNL1        0.0624
      5 H          17.6200   24.1570  112.6460 H       1  UNL1        0.0349
      6 H          15.8160   24.0510  114.2910 H       1  UNL1        0.0606
      7 H          14.5500   23.6050  111.5500 H       1  UNL1        0.0365
      8 H          11.2510   21.8180  114.1300 H       1  UNL1        0.0666
      9 H          11.3720   19.8570  115.9790 H       1  UNL1        0.0625
     10 H          11.2830   21.4230  117.7630 H       1  UNL1        0.0291
     11 H          11.9420   23.6810  115.8170 H       1  UNL1        0.0266
     12 H          11.4090   23.5510  118.8310 H       1  UNL1        0.0267
     13 H          12.9270   25.4340  118.1310 H       1  UNL1        0.0304
     14 H          10.7930   25.8350  116.1250 H       1  UNL1        0.0785
     15 H          14.5180   28.6400  116.0760 H       1  UNL1        0.0239
     16 H          16.9830   29.7430  112.9990 H       1  UNL1        0.0524
     17 H          16.5230   24.4300  110.5150 H       1  UNL1        0.0234
     18 H          16.6650   22.3710  111.5890 H       1  UNL1        0.0236
     19 H          11.0650   19.1410  111.8720 H       1  UNL1        0.0524
     20 H          14.6800   18.9570  116.6620 H       1  UNL1        0.0524
     21 H          12.4460   28.3150  118.5030 H       1  UNL1        0.0621
     22 H          11.3660   30.4270  119.1920 H       1  UNL1        0.0618
     23 H           9.1170   31.0180  118.3260 H       1  UNL1        0.0618
     24 H           7.9500   29.4860  116.7630 H       1  UNL1        0.0618
     25 H           9.0130   27.3700  116.0670 H       1  UNL1        0.0621
     26 H          16.2490   25.8500  115.6060 H       1  UNL1        0.2129
     27 H          12.7730   23.4970  113.1330 H       1  UNL1        0.0573
     28 H          14.2110   20.9160  113.9580 H       1  UNL1        0.0595
     29 H          12.9960   18.4020  116.6960 H       1  UNL1        0.0524
     30 H          10.2950   21.9440  116.4030 H       1  UNL1        0.0291
     31 H          13.0640   23.0930  117.0500 H       1  UNL1        0.0266
     32 H          10.2200   24.0860  117.6540 H       1  UNL1        0.0267
     33 H          11.4170   25.8700  118.9270 H       1  UNL1        0.0304
     34 H          13.2450   29.4610  115.1670 H       1  UNL1        0.0239
     35 H          17.9930   28.6180  112.0350 H       1  UNL1        0.0524
     36 H          17.5210   25.8580  110.7390 H       1  UNL1        0.0234
     37 H          15.3490   21.2320  111.7970 H       1  UNL1        0.0236
     38 H          10.2920   20.6420  112.4170 H       1  UNL1        0.0524
     39 H          13.7620   18.8800  115.1470 H       1  UNL1        0.0524
     40 H          14.9040   29.4850  114.5690 H       1  UNL1        0.0239
     41 H          16.6730   29.5180  111.2670 H       1  UNL1        0.0524
     42 H          15.7660   25.9480  110.9850 H       1  UNL1        0.0234
     43 H          16.3220   21.7280  113.1990 H       1  UNL1        0.0236
     44 H          11.9380   20.6740  111.7010 H       1  UNL1        0.0524
     45 C          12.6170   26.9250  114.7930 C.2     1  UNL1        0.3158
     46 C          13.8790   27.5830  114.2670 C.3     1  UNL1        0.1098
     47 C          15.0510   26.5780  114.2360 C.3     1  UNL1        0.2096
     48 C          16.3470   27.2410  113.6550 C.3     1  UNL1        0.1386
     49 C          17.4060   26.1480  113.4050 C.3     1  UNL1        0.0913
     50 C          16.8600   24.9480  112.6080 C.3     1  UNL1        0.0117
     51 C          15.5720   24.4160  113.2850 C.3     1  UNL1        0.0730
     52 C          14.8860   23.2400  112.5300 C.3     1  UNL1        0.0011
     53 C          13.6020   22.7950  113.2270 C.2     1  UNL1       -0.0802
     54 C          13.3940   21.6240  113.8540 C.2     1  UNL1       -0.0568
     55 C          12.0640   21.1150  114.3530 C.3     1  UNL1        0.1025
     56 C          12.0080   20.7480  115.8690 C.3     1  UNL1        0.0879
     57 C          11.3320   21.8190  116.7390 C.3     1  UNL1       -0.0239
     58 C          12.0030   23.1940  116.7950 C.3     1  UNL1       -0.0505
     59 C          11.2970   24.0470  117.8590 C.3     1  UNL1       -0.0493
     60 C          11.8390   25.4730  117.9950 C.3     1  UNL1       -0.0114
     61 C          11.4610   26.3780  116.8050 C.3     1  UNL1        0.1280
     62 C          14.1560   28.8610  115.0660 C.3     1  UNL1       -0.0472
     63 C          16.9850   29.0120  112.1840 C.3     1  UNL1        0.0371
     64 C          16.6510   25.3230  111.1340 C.3     1  UNL1       -0.0576
     65 C          15.8600   22.0790  112.2700 C.3     1  UNL1       -0.0566
     66 C          11.2470   20.1140  112.3370 C.3     1  UNL1        0.0373
     67 C          13.6920   19.0970  116.2160 C.3     1  UNL1        0.0369
     68 C          10.7980   27.6700  117.2560 C.ar    1  UNL1       -0.0073
     69 C          11.4520   28.5550  118.1290 C.ar    1  UNL1       -0.0551
     70 C          10.8480   29.7520  118.5160 C.ar    1  UNL1       -0.0614
     71 C           9.5860   30.0840  118.0290 C.ar    1  UNL1       -0.0617
     72 C           8.9300   29.2210  117.1530 C.ar    1  UNL1       -0.0614
     73 C           9.5320   28.0220  116.7670 C.ar    1  UNL1       -0.0551
     74 O          11.6460   26.6560  114.0940 O.2     1  UNL1       -0.2503
     75 O          15.3090   26.1200  115.5670 O.3     1  UNL1       -0.3619
     76 O          16.0590   27.9670  112.4500 O.3     1  UNL1       -0.3718
     77 O          17.8800   25.6800  114.6810 O.3     1  UNL1       -0.3887
     78 O          14.6270   25.4870  113.4050 O.3     1  UNL1       -0.3415
     79 O          11.8030   19.8880  113.6280 O.3     1  UNL1       -0.3732
     80 O          13.2880   20.4410  116.4500 O.3     1  UNL1       -0.3769
     81 O          12.6760   26.7560  116.1400 O.3     1  UNL1       -0.4563
@<TRIPOS>BOND
     1    17    64    1
     2    36    64    1
     3    42    64    1
     4    64    50    1
     5    41    63    1
     6     7    52    1
     7    18    65    1
     8    44    66    1
     9    37    65    1
    10    19    66    1
    11    35    63    1
    12    63    76    1
    13    63    16    1
    14    65    52    1
    15    65    43    1
    16    66    38    1
    17    66    79    1
    18    76    48    1
    19    52    53    1
    20    52    51    1
    21    50     5    1
    22    50    51    1
    23    50    49    1
    24     4    49    1
    25    27    53    1
    26    53    54    2
    27     2    46    1
    28    51    78    1
    29    51     6    1
    30    49    48    1
    31    49    77    1
    32    78    47    1
    33    79    55    1
    34    48    47    1
    35    48     3    1
    36    54    28    1
    37    54    55    1
    38    74    45    2
    39     8    55    1
    40    47    46    1
    41    47    75    1
    42    46    45    1
    43    46    62    1
    44    55    56    1
    45     1    77    1
    46    40    62    1
    47    45    81    1
    48    62    34    1
    49    62    15    1
    50    39    67    1
    51    75    26    1
    52    11    58    1
    53    56     9    1
    54    56    80    1
    55    56    57    1
    56    25    73    1
    57    14    61    1
    58    81    61    1
    59    67    80    1
    60    67    20    1
    61    67    29    1
    62    30    57    1
    63    57    58    1
    64    57    10    1
    65    24    72    1
    66    73    72   ar
    67    73    68   ar
    68    58    31    1
    69    58    59    1
    70    61    68    1
    71    61    60    1
    72    72    71   ar
    73    68    69   ar
    74    32    59    1
    75    59    60    1
    76    59    12    1
    77    60    13    1
    78    60    33    1
    79    71    23    1
    80    71    70   ar
    81    69    21    1
    82    69    70   ar
    83    70    22    1
