@<TRIPOS>MOLECULE
137.91335
 81 83 0 0 0
SMALL
GASTEIGER

@<TRIPOS>ATOM
      1 H          12.5660   31.2690  110.4430 H       1  UNL1        0.2099
      2 H          14.2800   28.0780  115.0860 H       1  UNL1        0.0465
      3 H          14.1780   28.5680  111.7840 H       1  UNL1        0.0676
      4 H          14.6270   31.0240  111.2240 H       1  UNL1        0.0624
      5 H          13.0060   32.6380  112.2710 H       1  UNL1        0.0349
      6 H          11.4210   31.0760  113.2640 H       1  UNL1        0.0606
      7 H          12.8360   32.5260  115.5520 H       1  UNL1        0.0365
      8 H           9.2990   30.6800  117.7740 H       1  UNL1        0.0666
      9 H           6.7550   31.3290  117.7550 H       1  UNL1        0.0625
     10 H           6.1440   29.4770  116.5020 H       1  UNL1        0.0291
     11 H           7.7060   30.1140  114.3940 H       1  UNL1        0.0266
     12 H           9.8620   29.2730  115.1050 H       1  UNL1        0.0267
     13 H           8.2840   26.9990  116.3340 H       1  UNL1        0.0304
     14 H          10.6470   25.8570  116.5540 H       1  UNL1        0.0785
     15 H          13.0620   26.2580  112.9390 H       1  UNL1        0.0239
     16 H          16.4630   28.2370  111.8510 H       1  UNL1        0.0524
     17 H          14.4730   33.2910  114.0640 H       1  UNL1        0.0234
     18 H          12.2640   34.1530  113.7910 H       1  UNL1        0.0236
     19 H           9.6040   33.4400  119.9200 H       1  UNL1        0.0524
     20 H           5.2140   32.8730  115.0140 H       1  UNL1        0.0524
     21 H           9.8230   26.0310  112.9130 H       1  UNL1        0.0621
     22 H           8.6040   24.2370  111.7420 H       1  UNL1        0.0618
     23 H           7.5710   22.3810  113.0250 H       1  UNL1        0.0618
     24 H           7.7620   22.3290  115.4970 H       1  UNL1        0.0618
     25 H           8.9740   24.1160  116.6890 H       1  UNL1        0.0621
     26 H          11.8200   29.1940  112.0350 H       1  UNL1        0.2129
     27 H          11.3600   30.8690  116.4990 H       1  UNL1        0.0573
     28 H           9.2680   32.9570  115.6650 H       1  UNL1        0.0595
     29 H           5.0470   31.1730  115.4760 H       1  UNL1        0.0524
     30 H           7.6420   29.0620  117.2700 H       1  UNL1        0.0291
     31 H           6.9540   28.5650  114.6870 H       1  UNL1        0.0266
     32 H           9.1380   28.1350  113.9920 H       1  UNL1        0.0267
     33 H           9.6440   27.9170  116.9530 H       1  UNL1        0.0304
     34 H          13.9420   25.6820  114.3590 H       1  UNL1        0.0239
     35 H          16.5770   30.0030  111.5610 H       1  UNL1        0.0524
     36 H          15.4910   32.5150  112.8610 H       1  UNL1        0.0234
     37 H          11.1710   34.3520  115.1460 H       1  UNL1        0.0236
     38 H           9.9170   31.7060  119.7200 H       1  UNL1        0.0524
     39 H           5.0650   32.4550  116.7320 H       1  UNL1        0.0524
     40 H          14.7690   26.6740  113.1570 H       1  UNL1        0.0239
     41 H          17.4480   29.2610  112.9140 H       1  UNL1        0.0524
     42 H          15.0370   31.6440  114.3380 H       1  UNL1        0.0234
     43 H          10.6190   33.5140  113.6800 H       1  UNL1        0.0236
     44 H          10.7300   32.9050  118.6620 H       1  UNL1        0.0524
     45 C          12.3100   27.4600  115.4380 C.2     1  UNL1        0.3158
     46 C          13.4240   27.7940  114.4590 C.3     1  UNL1        0.1098
     47 C          13.0220   28.9940  113.5690 C.3     1  UNL1        0.2096
     48 C          14.1540   29.3570  112.5480 C.3     1  UNL1        0.1386
     49 C          13.7990   30.6920  111.8590 C.3     1  UNL1        0.0913
     50 C          13.4270   31.8090  112.8530 C.3     1  UNL1        0.0117
     51 C          12.3360   31.3010  113.8290 C.3     1  UNL1        0.0730
     52 C          11.9450   32.3190  114.9440 C.3     1  UNL1        0.0011
     53 C          10.9560   31.7060  115.9270 C.2     1  UNL1       -0.0802
     54 C           9.7040   32.1150  116.1970 C.2     1  UNL1       -0.0568
     55 C           8.8350   31.5530  117.2950 C.3     1  UNL1        0.1025
     56 C           7.3830   31.1720  116.8650 C.3     1  UNL1        0.0879
     57 C           7.2220   29.6890  116.4790 C.3     1  UNL1       -0.0239
     58 C           7.7010   29.2650  115.0860 C.3     1  UNL1       -0.0505
     59 C           9.0530   28.5450  115.0050 C.3     1  UNL1       -0.0493
     60 C           9.2480   27.4370  116.0480 C.3     1  UNL1       -0.0114
     61 C          10.2270   26.3140  115.6470 C.3     1  UNL1        0.1280
     62 C          13.8190   26.5340  113.6810 C.3     1  UNL1       -0.0472
     63 C          16.5280   29.2210  112.3240 C.3     1  UNL1        0.0371
     64 C          14.6770   32.3350  113.5710 C.3     1  UNL1       -0.0576
     65 C          11.4700   33.6550  114.3550 C.3     1  UNL1       -0.0566
     66 C           9.8050   32.6540  119.1870 C.3     1  UNL1        0.0373
     67 C           5.4800   32.1310  115.7730 C.3     1  UNL1        0.0369
     68 C           9.4980   25.2090  114.8910 C.ar    1  UNL1       -0.0073
     69 C           9.3770   25.2250  113.4930 C.ar    1  UNL1       -0.0551
     70 C           8.6870   24.2110  112.8250 C.ar    1  UNL1       -0.0614
     71 C           8.1070   23.1690  113.5460 C.ar    1  UNL1       -0.0617
     72 C           8.2150   23.1400  114.9340 C.ar    1  UNL1       -0.0614
     73 C           8.9040   24.1540  115.6030 C.ar    1  UNL1       -0.0551
     74 O          12.3410   27.7260  116.6340 O.2     1  UNL1       -0.2503
     75 O          11.8270   28.6600  112.8540 O.3     1  UNL1       -0.3619
     76 O          15.4300   29.4280  113.2010 O.3     1  UNL1       -0.3718
     77 O          12.6800   30.4630  110.9820 O.3     1  UNL1       -0.3887
     78 O          12.7880   30.0940  114.4590 O.3     1  UNL1       -0.3415
     79 O           8.7030   32.5970  118.2900 O.3     1  UNL1       -0.3732
     80 O           6.8960   32.0540  115.8370 O.3     1  UNL1       -0.3769
     81 O          11.3100   26.7740  114.8290 O.3     1  UNL1       -0.4563
@<TRIPOS>BOND
     1     1    77    1
     2    77    49    1
     3     4    49    1
     4    35    63    1
     5    22    70    1
     6     3    48    1
     7    16    63    1
     8    49    48    1
     9    49    50    1
    10    26    75    1
    11     5    50    1
    12    63    41    1
    13    63    76    1
    14    48    76    1
    15    48    47    1
    16    70    69   ar
    17    70    71   ar
    18    50    64    1
    19    50    51    1
    20    75    47    1
    21    36    64    1
    22    21    69    1
    23    15    62    1
    24    23    71    1
    25    40    62    1
    26     6    51    1
    27    69    68   ar
    28    71    72   ar
    29    47    78    1
    30    47    46    1
    31    64    17    1
    32    64    42    1
    33    43    65    1
    34    62    34    1
    35    62    46    1
    36    18    65    1
    37    51    78    1
    38    51    52    1
    39    32    59    1
    40    65    52    1
    41    65    37    1
    42    11    58    1
    43    46     2    1
    44    46    45    1
    45    31    58    1
    46    81    45    1
    47    81    61    1
    48    68    73   ar
    49    68    61    1
    50    72    24    1
    51    72    73   ar
    52    52     7    1
    53    52    53    1
    54    59    58    1
    55    59    12    1
    56    59    60    1
    57    20    67    1
    58    58    57    1
    59    45    74    2
    60    29    67    1
    61    73    25    1
    62    61    60    1
    63    61    14    1
    64    28    54    1
    65    67    80    1
    66    67    39    1
    67    80    56    1
    68    53    54    2
    69    53    27    1
    70    60    13    1
    71    60    33    1
    72    54    55    1
    73    57    10    1
    74    57    56    1
    75    57    30    1
    76    56    55    1
    77    56     9    1
    78    55     8    1
    79    55    79    1
    80    79    66    1
    81    44    66    1
    82    66    38    1
    83    66    19    1
