@<TRIPOS>MOLECULE
149.65244
 81 83 0 0 0
SMALL
GASTEIGER

@<TRIPOS>ATOM
      1 H          17.9480   26.7250  113.4740 H       1  UNL1        0.2099
      2 H          12.2320   25.7520  112.8180 H       1  UNL1        0.0465
      3 H          14.8500   27.5070  112.2780 H       1  UNL1        0.0676
      4 H          16.8440   26.0200  111.6790 H       1  UNL1        0.0624
      5 H          17.5290   24.4360  113.4870 H       1  UNL1        0.0349
      6 H          16.0620   25.2430  115.2780 H       1  UNL1        0.0606
      7 H          15.2070   22.3780  114.6750 H       1  UNL1        0.0365
      8 H          13.2870   21.0830  118.5520 H       1  UNL1        0.0666
      9 H          12.9480   22.7360  120.2890 H       1  UNL1        0.0625
     10 H          12.7940   24.3120  117.6830 H       1  UNL1        0.0291
     11 H          11.5110   21.8560  117.8480 H       1  UNL1        0.0266
     12 H          10.2470   24.4730  116.9430 H       1  UNL1        0.0267
     13 H          11.4250   22.1190  115.3400 H       1  UNL1        0.0304
     14 H          11.6490   23.8600  113.5210 H       1  UNL1        0.0785
     15 H          12.5590   28.5860  113.9320 H       1  UNL1        0.0239
     16 H          14.0710   27.3350  110.1060 H       1  UNL1        0.0524
     17 H          16.3940   22.5060  112.5750 H       1  UNL1        0.0234
     18 H          17.6890   22.4530  114.5190 H       1  UNL1        0.0236
     19 H          15.5140   20.0990  121.0780 H       1  UNL1        0.0524
     20 H          14.9730   25.5170  121.0100 H       1  UNL1        0.0524
     21 H           8.2340   24.7130  114.6930 H       1  UNL1        0.0621
     22 H           6.2050   23.6730  113.7580 H       1  UNL1        0.0618
     23 H           6.3830   21.7020  112.2620 H       1  UNL1        0.0618
     24 H           8.6130   20.7720  111.7000 H       1  UNL1        0.0618
     25 H          10.6570   21.8000  112.6220 H       1  UNL1        0.0621
     26 H          15.4990   27.3100  114.6270 H       1  UNL1        0.2129
     27 H          15.0480   24.0830  117.1790 H       1  UNL1        0.0573
     28 H          14.7750   21.0640  116.7480 H       1  UNL1        0.0595
     29 H          13.3420   25.6660  120.3430 H       1  UNL1        0.0524
     30 H          11.8750   24.5980  119.1090 H       1  UNL1        0.0291
     31 H          10.4450   22.8030  118.8670 H       1  UNL1        0.0266
     32 H           9.5330   22.8860  116.6720 H       1  UNL1        0.0267
     33 H          12.3670   23.5340  115.7540 H       1  UNL1        0.0304
     34 H          11.1200   27.9630  113.1250 H       1  UNL1        0.0239
     35 H          15.5310   26.3160  109.8910 H       1  UNL1        0.0524
     36 H          16.5220   23.6770  111.2690 H       1  UNL1        0.0234
     37 H          17.2560   21.7270  116.0530 H       1  UNL1        0.0236
     38 H          14.4110   21.4470  121.3790 H       1  UNL1        0.0524
     39 H          13.6960   24.4430  121.6090 H       1  UNL1        0.0524
     40 H          12.6300   28.1060  112.2260 H       1  UNL1        0.0239
     41 H          13.9410   25.7210  109.3800 H       1  UNL1        0.0524
     42 H          14.9770   23.4380  112.1080 H       1  UNL1        0.0234
     43 H          17.7870   23.4140  116.0040 H       1  UNL1        0.0236
     44 H          13.8430   19.9910  120.4940 H       1  UNL1        0.0524
     45 C          11.7610   26.0960  114.8570 C.2     1  UNL1        0.3158
     46 C          12.5740   26.4190  113.6160 C.3     1  UNL1        0.1098
     47 C          14.0920   26.1940  113.8360 C.3     1  UNL1        0.2096
     48 C          14.8620   26.4280  112.4860 C.3     1  UNL1        0.1386
     49 C          16.3280   25.9850  112.6450 C.3     1  UNL1        0.0913
     50 C          16.4670   24.5790  113.2530 C.3     1  UNL1        0.0117
     51 C          15.6590   24.5040  114.5730 C.3     1  UNL1        0.0730
     52 C          15.7430   23.1150  115.2870 C.3     1  UNL1        0.0011
     53 C          15.0910   23.1270  116.6600 C.2     1  UNL1       -0.0802
     54 C          14.6570   22.0100  117.2740 C.2     1  UNL1       -0.0568
     55 C          14.0650   21.8490  118.6580 C.3     1  UNL1        0.1025
     56 C          13.4130   23.0910  119.3610 C.3     1  UNL1        0.0879
     57 C          12.3240   23.7880  118.5200 C.3     1  UNL1       -0.0239
     58 C          11.1790   22.8760  118.0550 C.3     1  UNL1       -0.0505
     59 C          10.4850   23.4140  116.7990 C.3     1  UNL1       -0.0493
     60 C          11.3500   23.1940  115.5460 C.3     1  UNL1       -0.0114
     61 C          10.8760   23.9470  114.2940 C.3     1  UNL1        0.1280
     62 C          12.2080   27.8490  113.2020 C.3     1  UNL1       -0.0472
     63 C          14.4660   26.3150  110.1340 C.3     1  UNL1        0.0371
     64 C          16.0610   23.4950  112.2460 C.3     1  UNL1       -0.0576
     65 C          17.1990   22.6560  115.4750 C.3     1  UNL1       -0.0566
     66 C          14.6830   20.6720  120.6570 C.3     1  UNL1        0.0373
     67 C          14.0810   24.9550  120.7220 C.3     1  UNL1        0.0369
     68 C           9.6040   23.3430  113.7210 C.ar    1  UNL1       -0.0073
     69 C           8.3340   23.8530  114.0330 C.ar    1  UNL1       -0.0551
     70 C           7.1820   23.2650  113.5080 C.ar    1  UNL1       -0.0614
     71 C           7.2820   22.1580  112.6690 C.ar    1  UNL1       -0.0617
     72 C           8.5340   21.6370  112.3530 C.ar    1  UNL1       -0.0614
     73 C           9.6880   22.2240  112.8760 C.ar    1  UNL1       -0.0551
     74 O          11.8920   26.6410  115.9470 O.2     1  UNL1       -0.2503
     75 O          14.5570   27.1250  114.8160 O.3     1  UNL1       -0.3619
     76 O          14.2290   25.7240  111.4050 O.3     1  UNL1       -0.3718
     77 O          16.9940   26.9310  113.4990 O.3     1  UNL1       -0.3887
     78 O          14.2820   24.8400  114.3000 O.3     1  UNL1       -0.3415
     79 O          15.1180   21.2480  119.4370 O.3     1  UNL1       -0.3732
     80 O          14.4530   24.0220  119.7200 O.3     1  UNL1       -0.3769
     81 O          10.6590   25.3390  114.5910 O.3     1  UNL1       -0.4563
@<TRIPOS>BOND
     1    41    63    1
     2    35    63    1
     3    16    63    1
     4    63    76    1
     5    36    64    1
     6    76    48    1
     7     4    49    1
     8    24    72    1
     9    42    64    1
    10    40    62    1
    11    64    17    1
    12    64    50    1
    13    23    71    1
    14     3    48    1
    15    72    71   ar
    16    72    73   ar
    17    48    49    1
    18    48    47    1
    19    25    73    1
    20    49    50    1
    21    49    77    1
    22    71    70   ar
    23     2    46    1
    24    73    68   ar
    25    34    62    1
    26    62    46    1
    27    62    15    1
    28    50     5    1
    29    50    51    1
    30     1    77    1
    31    70    22    1
    32    70    69   ar
    33    14    61    1
    34    46    47    1
    35    46    45    1
    36    68    69   ar
    37    68    61    1
    38    47    78    1
    39    47    75    1
    40    69    21    1
    41    61    81    1
    42    61    60    1
    43    78    51    1
    44    18    65    1
    45    51     6    1
    46    51    52    1
    47    81    45    1
    48    26    75    1
    49     7    52    1
    50    45    74    2
    51    52    65    1
    52    52    53    1
    53    13    60    1
    54    65    43    1
    55    65    37    1
    56    60    33    1
    57    60    59    1
    58    53    27    1
    59    53    54    2
    60    32    59    1
    61    28    54    1
    62    59    12    1
    63    59    58    1
    64    54    55    1
    65    10    57    1
    66    11    58    1
    67    58    57    1
    68    58    31    1
    69    57    30    1
    70    57    56    1
    71     8    55    1
    72    55    56    1
    73    55    79    1
    74    56    80    1
    75    56     9    1
    76    79    66    1
    77    80    67    1
    78    29    67    1
    79    44    66    1
    80    66    19    1
    81    66    38    1
    82    67    20    1
    83    67    39    1
