@<TRIPOS>MOLECULE
130.43889
 81 83 0 0 0
SMALL
GASTEIGER

@<TRIPOS>ATOM
      1 H          15.8110   33.1020  115.8780 H       1  UNL1        0.2099
      2 H          12.9700   28.4530  113.6040 H       1  UNL1        0.0465
      3 H          13.3110   31.7750  113.9620 H       1  UNL1        0.0676
      4 H          15.7700   32.4630  113.7580 H       1  UNL1        0.0624
      5 H          17.2970   31.3660  115.4360 H       1  UNL1        0.0349
      6 H          15.6640   30.1890  116.8040 H       1  UNL1        0.0606
      7 H          17.3040   28.0590  115.3500 H       1  UNL1        0.0365
      8 H          15.1810   25.5690  118.5230 H       1  UNL1        0.0666
      9 H          15.2250   25.4980  121.0480 H       1  UNL1        0.0625
     10 H          14.4820   28.1600  119.7110 H       1  UNL1        0.0291
     11 H          13.0730   26.0790  119.1460 H       1  UNL1        0.0266
     12 H          11.8360   28.2620  120.8990 H       1  UNL1        0.0267
     13 H          12.6730   28.7680  118.4820 H       1  UNL1        0.0304
     14 H          11.5980   26.6260  117.4770 H       1  UNL1        0.0785
     15 H          10.9770   30.4420  114.8130 H       1  UNL1        0.0239
     16 H          13.1670   31.8610  111.6550 H       1  UNL1        0.0524
     17 H          18.1500   29.7120  113.9050 H       1  UNL1        0.0234
     18 H          18.8030   29.8420  116.2010 H       1  UNL1        0.0236
     19 H          17.8800   23.3150  118.4050 H       1  UNL1        0.0524
     20 H          17.3640   27.3200  123.0890 H       1  UNL1        0.0524
     21 H           9.0570   29.4530  117.4610 H       1  UNL1        0.0621
     22 H           6.6320   29.0560  117.6930 H       1  UNL1        0.0618
     23 H           5.7700   26.7550  118.0390 H       1  UNL1        0.0618
     24 H           7.3490   24.8460  118.1490 H       1  UNL1        0.0618
     25 H           9.7760   25.2230  117.9220 H       1  UNL1        0.0621
     26 H          13.7580   31.3720  116.3420 H       1  UNL1        0.2129
     27 H          15.4800   27.0450  116.6510 H       1  UNL1        0.0573
     28 H          17.5650   27.5220  118.8560 H       1  UNL1        0.0595
     29 H          15.6240   26.9650  123.0820 H       1  UNL1        0.0524
     30 H          14.1640   27.8580  121.3970 H       1  UNL1        0.0291
     31 H          12.7990   25.8710  120.8690 H       1  UNL1        0.0266
     32 H          10.8590   26.9880  120.1940 H       1  UNL1        0.0267
     33 H          11.0740   29.2740  118.9410 H       1  UNL1        0.0304
     34 H          10.5340   29.0580  113.8060 H       1  UNL1        0.0239
     35 H          14.9220   32.2270  111.7100 H       1  UNL1        0.0524
     36 H          17.4150   30.9650  112.9160 H       1  UNL1        0.0234
     37 H          18.9860   28.3910  117.1660 H       1  UNL1        0.0236
     38 H          16.2400   23.6600  117.8240 H       1  UNL1        0.0524
     39 H          16.8150   25.6730  122.7190 H       1  UNL1        0.0524
     40 H          11.5250   30.3530  113.1330 H       1  UNL1        0.0239
     41 H          14.3140   30.9130  110.6890 H       1  UNL1        0.0524
     42 H          16.5710   29.4270  113.1770 H       1  UNL1        0.0234
     43 H          18.0430   29.7580  117.7950 H       1  UNL1        0.0236
     44 H          17.6170   24.7000  117.3320 H       1  UNL1        0.0524
     45 C          12.2820   27.9630  115.5210 C.2     1  UNL1        0.3158
     46 C          12.6050   29.0160  114.4730 C.3     1  UNL1        0.1098
     47 C          13.7290   29.9290  115.0180 C.3     1  UNL1        0.2096
     48 C          14.1300   31.0430  113.9970 C.3     1  UNL1        0.1386
     49 C          15.4020   31.7560  114.5090 C.3     1  UNL1        0.0913
     50 C          16.5340   30.7840  114.9030 C.3     1  UNL1        0.0117
     51 C          15.9870   29.7070  115.8720 C.3     1  UNL1        0.0730
     52 C          17.0080   28.5920  116.2630 C.3     1  UNL1        0.0011
     53 C          16.3400   27.5240  117.1250 C.2     1  UNL1       -0.0802
     54 C          16.7080   27.0920  118.3440 C.2     1  UNL1       -0.0568
     55 C          16.0230   25.9740  119.0970 C.3     1  UNL1        0.1025
     56 C          15.4990   26.4110  120.5000 C.3     1  UNL1        0.0879
     57 C          14.2870   27.3550  120.4290 C.3     1  UNL1       -0.0239
     58 C          12.9830   26.6220  120.0910 C.3     1  UNL1       -0.0505
     59 C          11.7770   27.5690  120.0500 C.3     1  UNL1       -0.0493
     60 C          11.6840   28.3810  118.7530 C.3     1  UNL1       -0.0114
     61 C          11.0990   27.5970  117.5600 C.3     1  UNL1        0.1280
     62 C          11.3410   29.7630  114.0350 C.3     1  UNL1       -0.0472
     63 C          14.1740   31.4340  111.6400 C.3     1  UNL1        0.0371
     64 C          17.1960   30.1860  113.6540 C.3     1  UNL1       -0.0576
     65 C          18.2760   29.1800  116.8940 C.3     1  UNL1       -0.0566
     66 C          17.1810   24.1150  118.1470 C.3     1  UNL1        0.0373
     67 C          16.5790   26.7360  122.6020 C.3     1  UNL1        0.0369
     68 C           9.6020   27.3700  117.6850 C.ar    1  UNL1       -0.0073
     69 C           8.6940   28.4390  117.6190 C.ar    1  UNL1       -0.0551
     70 C           7.3220   28.2190  117.7470 C.ar    1  UNL1       -0.0614
     71 C           6.8390   26.9270  117.9400 C.ar    1  UNL1       -0.0617
     72 C           7.7260   25.8550  118.0020 C.ar    1  UNL1       -0.0614
     73 C           9.0990   26.0730  117.8740 C.ar    1  UNL1       -0.0551
     74 O          12.8420   26.8740  115.5910 O.2     1  UNL1       -0.2503
     75 O          13.2720   30.5290  116.2360 O.3     1  UNL1       -0.3619
     76 O          14.3300   30.4870  112.6890 O.3     1  UNL1       -0.3718
     77 O          15.0440   32.5380  115.6640 O.3     1  UNL1       -0.3887
     78 O          14.8520   29.0740  115.2690 O.3     1  UNL1       -0.3415
     79 O          16.9790   24.9150  119.3050 O.3     1  UNL1       -0.3732
     80 O          16.5520   27.0850  121.2250 O.3     1  UNL1       -0.3769
     81 O          11.3190   28.3930  116.3810 O.3     1  UNL1       -0.4563
@<TRIPOS>BOND
     1    41    63    1
     2    63    16    1
     3    63    35    1
     4    63    76    1
     5    76    48    1
     6    36    64    1
     7    40    62    1
     8    42    64    1
     9     2    46    1
    10    64    17    1
    11    64    50    1
    12     4    49    1
    13    34    62    1
    14     3    48    1
    15    48    49    1
    16    48    47    1
    17    62    46    1
    18    62    15    1
    19    46    47    1
    20    46    45    1
    21    49    50    1
    22    49    77    1
    23    50     5    1
    24    50    51    1
    25    47    78    1
    26    47    75    1
    27    78    51    1
    28     7    52    1
    29    45    74    2
    30    45    81    1
    31    77     1    1
    32    51    52    1
    33    51     6    1
    34    18    65    1
    35    75    26    1
    36    52    65    1
    37    52    53    1
    38    81    61    1
    39    27    53    1
    40    65    37    1
    41    65    43    1
    42    53    54    2
    43    44    66    1
    44    21    69    1
    45    14    61    1
    46    61    68    1
    47    61    60    1
    48    69    68   ar
    49    69    70   ar
    50    68    73   ar
    51    22    70    1
    52    70    71   ar
    53    38    66    1
    54    73    25    1
    55    73    72   ar
    56    71    72   ar
    57    71    23    1
    58    72    24    1
    59    66    19    1
    60    66    79    1
    61    54    28    1
    62    54    55    1
    63    13    60    1
    64     8    55    1
    65    60    33    1
    66    60    59    1
    67    55    79    1
    68    55    56    1
    69    11    58    1
    70    10    57    1
    71    59    58    1
    72    59    32    1
    73    59    12    1
    74    58    57    1
    75    58    31    1
    76    57    56    1
    77    57    30    1
    78    56     9    1
    79    56    80    1
    80    80    67    1
    81    67    39    1
    82    67    29    1
    83    67    20    1
