@<TRIPOS>MOLECULE
129.20897
 81 83 0 0 0
SMALL
GASTEIGER

@<TRIPOS>ATOM
      1 H          19.6840   26.2890  115.8960 H       1  UNL1        0.2099
      2 H          14.0640   25.4090  114.3440 H       1  UNL1        0.0465
      3 H          17.0330   26.8840  113.8220 H       1  UNL1        0.0676
      4 H          18.9200   25.1740  114.1300 H       1  UNL1        0.0624
      5 H          19.0060   24.1210  116.4090 H       1  UNL1        0.0349
      6 H          17.3060   25.4810  117.5140 H       1  UNL1        0.0606
      7 H          16.2200   22.6250  117.4580 H       1  UNL1        0.0365
      8 H          13.6870   24.7250  120.6210 H       1  UNL1        0.0666
      9 H          13.9890   26.8510  121.9290 H       1  UNL1        0.0625
     10 H          13.4860   26.7140  119.4270 H       1  UNL1        0.0291
     11 H          14.9770   29.1530  120.4930 H       1  UNL1        0.0266
     12 H          14.7260   29.1050  117.9190 H       1  UNL1        0.0267
     13 H          12.5390   30.2290  117.2840 H       1  UNL1        0.0304
     14 H          12.1380   27.2960  118.0200 H       1  UNL1        0.0785
     15 H          14.7020   28.4040  114.2600 H       1  UNL1        0.0239
     16 H          16.8240   26.1360  111.6520 H       1  UNL1        0.0524
     17 H          17.8670   22.0840  115.7850 H       1  UNL1        0.0234
     18 H          18.5940   22.4500  118.0000 H       1  UNL1        0.0236
     19 H          14.3000   22.6960  123.4210 H       1  UNL1        0.0524
     20 H          17.2000   27.4090  123.1990 H       1  UNL1        0.0524
     21 H          11.4650   29.7070  115.1490 H       1  UNL1        0.0621
     22 H           9.2550   29.8840  114.0640 H       1  UNL1        0.0618
     23 H           7.3570   28.4990  114.8610 H       1  UNL1        0.0618
     24 H           7.6810   26.9280  116.7540 H       1  UNL1        0.0618
     25 H           9.8800   26.7400  117.8520 H       1  UNL1        0.0621
     26 H          17.1290   27.3180  116.2330 H       1  UNL1        0.2129
     27 H          14.5940   23.9860  118.5190 H       1  UNL1        0.0573
     28 H          16.7720   24.4860  120.6320 H       1  UNL1        0.0595
     29 H          15.5340   26.9560  123.6060 H       1  UNL1        0.0524
     30 H          15.1970   27.0490  119.1200 H       1  UNL1        0.0291
     31 H          13.2450   28.8800  120.6040 H       1  UNL1        0.0266
     32 H          14.1910   30.4970  118.8320 H       1  UNL1        0.0267
     33 H          11.8110   29.6410  118.7690 H       1  UNL1        0.0304
     34 H          13.2440   27.6630  113.5870 H       1  UNL1        0.0239
     35 H          18.0820   24.9360  112.0910 H       1  UNL1        0.0524
     36 H          18.4290   22.8230  114.2910 H       1  UNL1        0.0234
     37 H          17.6820   22.2810  119.4920 H       1  UNL1        0.0236
     38 H          13.1640   23.0570  122.1080 H       1  UNL1        0.0524
     39 H          16.7080   25.7260  123.0150 H       1  UNL1        0.0524
     40 H          14.8250   27.2410  112.9320 H       1  UNL1        0.0239
     41 H          16.5580   24.4070  111.3580 H       1  UNL1        0.0524
     42 H          16.7190   22.9260  114.7510 H       1  UNL1        0.0234
     43 H          18.5040   23.8110  119.1230 H       1  UNL1        0.0236
     44 H          14.7920   22.3930  121.7450 H       1  UNL1        0.0524
     45 C          13.3920   26.5000  115.9970 C.2     1  UNL1        0.3158
     46 C          14.3920   26.3200  114.8640 C.3     1  UNL1        0.1098
     47 C          15.8120   26.1070  115.4380 C.3     1  UNL1        0.2096
     48 C          16.8710   25.9070  114.2990 C.3     1  UNL1        0.1386
     49 C          18.2070   25.4400  114.9180 C.3     1  UNL1        0.0913
     50 C          18.0480   24.2540  115.8900 C.3     1  UNL1        0.0117
     51 C          16.9730   24.6040  116.9420 C.3     1  UNL1        0.0730
     52 C          16.6690   23.4820  117.9780 C.3     1  UNL1        0.0011
     53 C          15.6000   23.9700  118.9430 C.2     1  UNL1       -0.0802
     54 C          15.7810   24.4340  120.1920 C.2     1  UNL1       -0.0568
     55 C          14.6660   24.9800  121.0490 C.3     1  UNL1        0.1025
     56 C          14.7270   26.5360  121.1800 C.3     1  UNL1        0.0879
     57 C          14.3760   27.1990  119.8310 C.3     1  UNL1       -0.0239
     58 C          14.1230   28.7040  119.9710 C.3     1  UNL1       -0.0505
     59 C          13.9670   29.4390  118.6350 C.3     1  UNL1       -0.0493
     60 C          12.5650   29.4040  118.0080 C.3     1  UNL1       -0.0114
     61 C          12.1880   28.1000  117.2820 C.3     1  UNL1        0.1280
     62 C          14.2890   27.4730  113.8570 C.3     1  UNL1       -0.0472
     63 C          17.0080   25.1310  112.0430 C.3     1  UNL1        0.0371
     64 C          17.7430   22.9550  115.1350 C.3     1  UNL1       -0.0576
     65 C          17.9330   22.9840  118.6890 C.3     1  UNL1       -0.0566
     66 C          14.2200   23.0620  122.3940 C.3     1  UNL1        0.0373
     67 C          16.3650   26.7590  122.9220 C.3     1  UNL1        0.0369
     68 C          10.8350   28.2260  116.5970 C.ar    1  UNL1       -0.0073
     69 C          10.6400   29.1020  115.5180 C.ar    1  UNL1       -0.0551
     70 C           9.3930   29.2020  114.8980 C.ar    1  UNL1       -0.0614
     71 C           8.3270   28.4240  115.3460 C.ar    1  UNL1       -0.0617
     72 C           8.5080   27.5440  116.4110 C.ar    1  UNL1       -0.0614
     73 C           9.7540   27.4440  117.0320 C.ar    1  UNL1       -0.0551
     74 O          12.8230   25.5690  116.5600 O.2     1  UNL1       -0.2503
     75 O          16.1530   27.2570  116.2200 O.3     1  UNL1       -0.3619
     76 O          16.3990   24.9710  113.3180 O.3     1  UNL1       -0.3718
     77 O          18.7820   26.5510  115.6300 O.3     1  UNL1       -0.3887
     78 O          15.7520   24.9380  116.2670 O.3     1  UNL1       -0.3415
     79 O          14.7420   24.3850  122.3560 O.3     1  UNL1       -0.3732
     80 O          16.0130   27.0520  121.5780 O.3     1  UNL1       -0.3769
     81 O          13.1850   27.8160  116.2870 O.3     1  UNL1       -0.4563
@<TRIPOS>BOND
     1    41    63    1
     2    16    63    1
     3    63    35    1
     4    63    76    1
     5    40    62    1
     6    76    48    1
     7    34    62    1
     8     3    48    1
     9    62    15    1
    10    62    46    1
    11    22    70    1
    12     4    49    1
    13    36    64    1
    14    48    49    1
    15    48    47    1
    16     2    46    1
    17    42    64    1
    18    23    71    1
    19    46    47    1
    20    46    45    1
    21    70    71   ar
    22    70    69   ar
    23    49    77    1
    24    49    50    1
    25    64    17    1
    26    64    50    1
    27    21    69    1
    28    71    72   ar
    29    47    75    1
    30    47    78    1
    31    69    68   ar
    32    77     1    1
    33    50     5    1
    34    50    51    1
    35    45    81    1
    36    45    74    2
    37    75    26    1
    38    78    51    1
    39    81    61    1
    40    72    24    1
    41    72    73   ar
    42    68    73   ar
    43    68    61    1
    44    51     6    1
    45    51    52    1
    46    73    25    1
    47    61    60    1
    48    61    14    1
    49    13    60    1
    50     7    52    1
    51    12    59    1
    52    52    65    1
    53    52    53    1
    54    18    65    1
    55    60    59    1
    56    60    33    1
    57    27    53    1
    58    59    32    1
    59    59    58    1
    60    65    43    1
    61    65    37    1
    62    53    54    2
    63    30    57    1
    64    10    57    1
    65    57    58    1
    66    57    56    1
    67    58    11    1
    68    58    31    1
    69    54    28    1
    70    54    55    1
    71     8    55    1
    72    55    56    1
    73    55    79    1
    74    56    80    1
    75    56     9    1
    76    80    67    1
    77    44    66    1
    78    38    66    1
    79    79    66    1
    80    66    19    1
    81    67    39    1
    82    67    20    1
    83    67    29    1
