@<TRIPOS>MOLECULE
140.90580
 81 83 0 0 0
SMALL
GASTEIGER

@<TRIPOS>ATOM
      1 H          16.4810   24.5610  112.7650 H       1  UNL1        0.2099
      2 H          10.9030   25.3770  114.8590 H       1  UNL1        0.0465
      3 H          14.1340   26.9890  113.2430 H       1  UNL1        0.0676
      4 H          15.2000   25.6250  111.3260 H       1  UNL1        0.0624
      5 H          15.0000   23.1290  111.5990 H       1  UNL1        0.0349
      6 H          14.0560   23.0970  113.8430 H       1  UNL1        0.0606
      7 H          11.8790   21.8900  112.0960 H       1  UNL1        0.0365
      8 H          11.0200   20.8170  116.5100 H       1  UNL1        0.0666
      9 H          12.3000   19.8410  118.3800 H       1  UNL1        0.0625
     10 H          14.2540   21.4120  118.5010 H       1  UNL1        0.0291
     11 H          11.9640   22.3460  118.9550 H       1  UNL1        0.0266
     12 H          13.9300   24.1760  117.4710 H       1  UNL1        0.0267
     13 H          12.9030   26.0050  118.8360 H       1  UNL1        0.0304
     14 H          11.6890   24.7270  116.5090 H       1  UNL1        0.0785
     15 H          11.0510   27.7080  112.9740 H       1  UNL1        0.0239
     16 H          13.3210   28.6120  111.8030 H       1  UNL1        0.0524
     17 H          13.0890   22.8590  110.1360 H       1  UNL1        0.0234
     18 H          14.0200   21.0230  111.2430 H       1  UNL1        0.0236
     19 H           9.6050   17.7180  115.6280 H       1  UNL1        0.0524
     20 H          15.1030   17.7970  118.1370 H       1  UNL1        0.0524
     21 H          10.0740   27.3950  118.6620 H       1  UNL1        0.0621
     22 H           7.6560   27.4240  119.1650 H       1  UNL1        0.0618
     23 H           6.1900   25.5930  118.3590 H       1  UNL1        0.0618
     24 H           7.1500   23.7250  117.0410 H       1  UNL1        0.0618
     25 H           9.5610   23.6760  116.5300 H       1  UNL1        0.0621
     26 H          14.5730   25.0820  114.6730 H       1  UNL1        0.2129
     27 H          11.2550   22.0280  114.4500 H       1  UNL1        0.0573
     28 H          13.2770   19.7250  114.6890 H       1  UNL1        0.0595
     29 H          14.6320   19.1620  119.1710 H       1  UNL1        0.0524
     30 H          14.0890   21.7870  116.8080 H       1  UNL1        0.0291
     31 H          11.8090   22.7380  117.2470 H       1  UNL1        0.0266
     32 H          13.8930   23.8460  119.1960 H       1  UNL1        0.0267
     33 H          11.6490   24.8870  119.3710 H       1  UNL1        0.0304
     34 H           9.6930   27.0830  113.8820 H       1  UNL1        0.0239
     35 H          14.3260   27.6430  110.6780 H       1  UNL1        0.0524
     36 H          13.8290   24.4060  109.7390 H       1  UNL1        0.0234
     37 H          13.2440   19.7770  112.2060 H       1  UNL1        0.0236
     38 H           9.2720   19.4180  116.0050 H       1  UNL1        0.0524
     39 H          13.4480   17.8740  118.7740 H       1  UNL1        0.0524
     40 H          10.3750   26.1040  112.5780 H       1  UNL1        0.0239
     41 H          12.6560   28.0650  110.2510 H       1  UNL1        0.0524
     42 H          12.3340   24.3470  110.6920 H       1  UNL1        0.0234
     43 H          14.5990   20.7050  112.8820 H       1  UNL1        0.0236
     44 H          10.1380   18.9730  114.4980 H       1  UNL1        0.0524
     45 C          11.9860   27.1280  115.4580 C.2     1  UNL1        0.3158
     46 C          11.5590   26.1240  114.4080 C.3     1  UNL1        0.1098
     47 C          12.8100   25.3920  113.8600 C.3     1  UNL1        0.2096
     48 C          13.6340   26.1400  112.7580 C.3     1  UNL1        0.1386
     49 C          14.7070   25.1740  112.1940 C.3     1  UNL1        0.0913
     50 C          14.1440   23.7850  111.8020 C.3     1  UNL1        0.0117
     51 C          13.3620   23.2050  112.9990 C.3     1  UNL1        0.0730
     52 C          12.7110   21.8050  112.8070 C.3     1  UNL1        0.0011
     53 C          12.0820   21.3900  114.1370 C.2     1  UNL1       -0.0802
     54 C          12.4540   20.3860  114.9510 C.2     1  UNL1       -0.0568
     55 C          11.8180   20.0970  116.2920 C.3     1  UNL1        0.1025
     56 C          12.8430   20.1360  117.4720 C.3     1  UNL1        0.0879
     57 C          13.5110   21.5070  117.6980 C.3     1  UNL1       -0.0239
     58 C          12.5300   22.6230  118.0590 C.3     1  UNL1       -0.0505
     59 C          13.2590   23.9520  118.3070 C.3     1  UNL1       -0.0493
     60 C          12.3040   25.1390  118.5270 C.3     1  UNL1       -0.0114
     61 C          11.4880   25.4880  117.2620 C.3     1  UNL1        0.1280
     62 C          10.6300   26.7890  113.3930 C.3     1  UNL1       -0.0472
     63 C          13.3200   27.7940  111.0770 C.3     1  UNL1        0.0371
     64 C          13.2980   23.8600  110.5260 C.3     1  UNL1       -0.0576
     65 C          13.7010   20.7720  112.2580 C.3     1  UNL1       -0.0566
     66 C           9.9990   18.7350  115.5560 C.3     1  UNL1        0.0373
     67 C          14.2830   18.4720  118.3970 C.3     1  UNL1        0.0369
     68 C          10.0010   25.5330  117.5590 C.ar    1  UNL1       -0.0073
     69 C           9.4430   26.5840  118.3020 C.ar    1  UNL1       -0.0551
     70 C           8.0770   26.6040  118.5890 C.ar    1  UNL1       -0.0614
     71 C           7.2530   25.5760  118.1360 C.ar    1  UNL1       -0.0617
     72 C           7.7930   24.5260  117.3960 C.ar    1  UNL1       -0.0614
     73 C           9.1590   24.5040  117.1100 C.ar    1  UNL1       -0.0551
     74 O          12.4170   28.2370  115.1390 O.2     1  UNL1       -0.2503
     75 O          13.6470   25.1040  114.9950 O.3     1  UNL1       -0.3619
     76 O          12.8210   26.6030  111.6740 O.3     1  UNL1       -0.3718
     77 O          15.7210   24.9940  113.1990 O.3     1  UNL1       -0.3887
     78 O          12.3210   24.1320  113.3590 O.3     1  UNL1       -0.3415
     79 O          11.2330   18.7820  116.2600 O.3     1  UNL1       -0.3732
     80 O          13.8970   19.1770  117.2260 O.3     1  UNL1       -0.3769
     81 O          11.9110   26.7870  116.7710 O.3     1  UNL1       -0.4563
@<TRIPOS>BOND
     1    36    64    1
     2    17    64    1
     3    41    63    1
     4    64    42    1
     5    64    50    1
     6    35    63    1
     7    63    76    1
     8    63    16    1
     9    18    65    1
    10     4    49    1
    11     5    50    1
    12    76    48    1
    13    50    49    1
    14    50    51    1
    15     7    52    1
    16    49    48    1
    17    49    77    1
    18    37    65    1
    19    65    52    1
    20    65    43    1
    21    40    62    1
    22    48     3    1
    23    48    47    1
    24     1    77    1
    25    52    51    1
    26    52    53    1
    27    15    62    1
    28    51    78    1
    29    51     6    1
    30    78    47    1
    31    62    34    1
    32    62    46    1
    33    47    46    1
    34    47    75    1
    35    53    27    1
    36    53    54    2
    37    46     2    1
    38    46    45    1
    39    44    66    1
    40    26    75    1
    41    28    54    1
    42    54    55    1
    43    74    45    2
    44    45    81    1
    45    66    19    1
    46    66    38    1
    47    66    79    1
    48    79    55    1
    49    55     8    1
    50    55    56    1
    51    14    61    1
    52    25    73    1
    53    81    61    1
    54    30    57    1
    55    24    72    1
    56    73    72   ar
    57    73    68   ar
    58    80    56    1
    59    80    67    1
    60    31    58    1
    61    61    68    1
    62    61    60    1
    63    72    71   ar
    64    12    59    1
    65    56    57    1
    66    56     9    1
    67    68    69   ar
    68    57    58    1
    69    57    10    1
    70    58    59    1
    71    58    11    1
    72    71    23    1
    73    71    70   ar
    74    20    67    1
    75    69    70   ar
    76    69    21    1
    77    59    60    1
    78    59    32    1
    79    67    39    1
    80    67    29    1
    81    60    13    1
    82    60    33    1
    83    70    22    1
