@<TRIPOS>MOLECULE
129.90531
 81 83 0 0 0
SMALL
GASTEIGER

@<TRIPOS>ATOM
      1 H          17.2840   31.5560  116.0360 H       1  UNL1        0.2099
      2 H          14.3790   26.6720  114.5280 H       1  UNL1        0.0465
      3 H          15.3180   29.8110  113.8550 H       1  UNL1        0.0676
      4 H          17.7910   30.1150  114.4270 H       1  UNL1        0.0624
      5 H          18.3830   29.6400  116.8050 H       1  UNL1        0.0349
      6 H          16.1300   29.3800  117.7260 H       1  UNL1        0.0606
      7 H          17.4720   26.6530  118.0090 H       1  UNL1        0.0365
      8 H          14.1220   26.4990  121.0820 H       1  UNL1        0.0666
      9 H          13.2940   28.0510  122.9260 H       1  UNL1        0.0625
     10 H          13.8700   29.4120  120.2440 H       1  UNL1        0.0291
     11 H          11.1250   28.4480  121.0330 H       1  UNL1        0.0266
     12 H          12.7900   28.5230  118.4770 H       1  UNL1        0.0267
     13 H          10.0660   27.1990  118.9440 H       1  UNL1        0.0304
     14 H          10.4230   26.4770  116.4810 H       1  UNL1        0.0785
     15 H          12.6560   29.1410  113.9560 H       1  UNL1        0.0239
     16 H          16.0040   28.9920  111.8110 H       1  UNL1        0.0524
     17 H          19.1780   27.3870  116.4260 H       1  UNL1        0.0234
     18 H          19.2150   28.3440  118.4700 H       1  UNL1        0.0236
     19 H          16.0160   24.5890  123.3070 H       1  UNL1        0.0524
     20 H          15.7590   29.9830  124.4610 H       1  UNL1        0.0524
     21 H          10.7440   30.1810  116.3320 H       1  UNL1        0.0621
     22 H           8.8120   31.6660  115.9520 H       1  UNL1        0.0618
     23 H           6.5030   30.7620  116.0310 H       1  UNL1        0.0618
     24 H           6.1320   28.3540  116.4970 H       1  UNL1        0.0618
     25 H           8.0500   26.8520  116.8790 H       1  UNL1        0.0621
     26 H          14.7900   30.3710  116.1810 H       1  UNL1        0.2129
     27 H          15.2130   26.6800  118.9490 H       1  UNL1        0.0573
     28 H          16.7150   28.1620  121.1890 H       1  UNL1        0.0595
     29 H          14.6890   28.5800  124.6380 H       1  UNL1        0.0524
     30 H          12.7580   30.0260  121.4290 H       1  UNL1        0.0291
     31 H          12.2420   27.1650  120.6490 H       1  UNL1        0.0266
     32 H          11.3210   29.4320  118.8480 H       1  UNL1        0.0267
     33 H          11.5720   26.3990  118.5390 H       1  UNL1        0.0304
     34 H          12.2720   27.5090  113.3950 H       1  UNL1        0.0239
     35 H          17.6740   29.1370  112.4460 H       1  UNL1        0.0524
     36 H          19.1370   28.1700  114.8530 H       1  UNL1        0.0234
     37 H          18.6890   27.6320  119.9780 H       1  UNL1        0.0236
     38 H          14.7200   24.5540  122.0960 H       1  UNL1        0.0524
     39 H          16.2820   28.4300  123.8130 H       1  UNL1        0.0524
     40 H          13.7440   28.3010  112.8410 H       1  UNL1        0.0239
     41 H          17.1080   27.6040  111.7630 H       1  UNL1        0.0524
     42 H          17.8740   27.0100  115.3090 H       1  UNL1        0.0234
     43 H          18.1140   29.2490  119.5150 H       1  UNL1        0.0236
     44 H          16.3920   25.0070  121.6260 H       1  UNL1        0.0524
     45 C          12.8540   27.0320  115.9070 C.2     1  UNL1        0.3158
     46 C          13.8540   27.5640  114.8970 C.3     1  UNL1        0.1098
     47 C          14.8830   28.5220  115.5480 C.3     1  UNL1        0.2096
     48 C          15.8720   29.0820  114.4640 C.3     1  UNL1        0.1386
     49 C          17.0330   29.8170  115.1590 C.3     1  UNL1        0.0913
     50 C          17.6900   28.9790  116.2690 C.3     1  UNL1        0.0117
     51 C          16.6040   28.5030  117.2640 C.3     1  UNL1        0.0730
     52 C          17.1450   27.6140  118.4300 C.3     1  UNL1        0.0011
     53 C          16.0220   27.2610  119.3980 C.2     1  UNL1       -0.0802
     54 C          15.9400   27.5760  120.7040 C.2     1  UNL1       -0.0568
     55 C          14.8060   27.1690  121.6130 C.3     1  UNL1        0.1025
     56 C          13.9930   28.3960  122.1520 C.3     1  UNL1        0.0879
     57 C          13.1850   29.0920  121.0380 C.3     1  UNL1       -0.0239
     58 C          12.0490   28.2280  120.4830 C.3     1  UNL1       -0.0505
     59 C          11.8230   28.4690  118.9890 C.3     1  UNL1       -0.0493
     60 C          11.0020   27.3250  118.3860 C.3     1  UNL1       -0.0114
     61 C          10.7140   27.4590  116.8810 C.3     1  UNL1        0.1280
     62 C          13.0920   28.1670  113.7080 C.3     1  UNL1       -0.0472
     63 C          16.8080   28.4790  112.3460 C.3     1  UNL1        0.0371
     64 C          18.5080   27.8220  115.6780 C.3     1  UNL1       -0.0576
     65 C          18.3540   28.2490  119.1360 C.3     1  UNL1       -0.0566
     66 C          15.6310   25.0760  122.4070 C.3     1  UNL1        0.0373
     67 C          15.4100   29.0680  123.9750 C.3     1  UNL1        0.0369
     68 C           9.5460   28.4010  116.6260 C.ar    1  UNL1       -0.0073
     69 C           9.7380   29.7660  116.3660 C.ar    1  UNL1       -0.0551
     70 C           8.6470   30.6110  116.1520 C.ar    1  UNL1       -0.0614
     71 C           7.3510   30.1030  116.1970 C.ar    1  UNL1       -0.0617
     72 C           7.1430   28.7510  116.4580 C.ar    1  UNL1       -0.0614
     73 C           8.2320   27.9050  116.6730 C.ar    1  UNL1       -0.0551
     74 O          12.9010   25.9050  116.3870 O.2     1  UNL1       -0.2503
     75 O          14.1780   29.6070  116.1600 O.3     1  UNL1       -0.3619
     76 O          16.3570   28.0280  113.6170 O.3     1  UNL1       -0.3718
     77 O          16.5190   31.0330  115.7320 O.3     1  UNL1       -0.3887
     78 O          15.5920   27.7700  116.5490 O.3     1  UNL1       -0.3415
     79 O          15.3440   26.4330  122.7270 O.3     1  UNL1       -0.3732
     80 O          14.8160   29.4300  122.7360 O.3     1  UNL1       -0.3769
     81 O          11.8500   27.9220  116.1320 O.3     1  UNL1       -0.4563
@<TRIPOS>BOND
     1    41    63    1
     2    16    63    1
     3    63    35    1
     4    63    76    1
     5    40    62    1
     6    34    62    1
     7    76    48    1
     8    62    15    1
     9    62    46    1
    10     3    48    1
    11     4    49    1
    12    48    49    1
    13    48    47    1
    14     2    46    1
    15    36    64    1
    16    46    47    1
    17    46    45    1
    18    49    77    1
    19    49    50    1
    20    42    64    1
    21    47    75    1
    22    47    78    1
    23    64    50    1
    24    64    17    1
    25    77     1    1
    26    45    81    1
    27    45    74    2
    28    22    70    1
    29    23    71    1
    30    81    61    1
    31    70    71   ar
    32    70    69   ar
    33    75    26    1
    34    71    72   ar
    35    50     5    1
    36    50    51    1
    37    21    69    1
    38    69    68   ar
    39    72    24    1
    40    72    73   ar
    41    14    61    1
    42    78    51    1
    43    68    73   ar
    44    68    61    1
    45    73    25    1
    46    61    60    1
    47    51     6    1
    48    51    52    1
    49     7    52    1
    50    60    33    1
    51    60    13    1
    52    60    59    1
    53    52    65    1
    54    52    53    1
    55    18    65    1
    56    12    59    1
    57    32    59    1
    58    27    53    1
    59    59    58    1
    60    65    43    1
    61    65    37    1
    62    53    54    2
    63    10    57    1
    64    58    31    1
    65    58    11    1
    66    58    57    1
    67    54    28    1
    68    54    55    1
    69    57    30    1
    70    57    56    1
    71     8    55    1
    72    55    56    1
    73    55    79    1
    74    44    66    1
    75    38    66    1
    76    56    80    1
    77    56     9    1
    78    66    79    1
    79    66    19    1
    80    80    67    1
    81    39    67    1
    82    67    20    1
    83    67    29    1
