@<TRIPOS>MOLECULE
134.69471
 81 83 0 0 0
SMALL
GASTEIGER

@<TRIPOS>ATOM
      1 H          17.8400   27.0450  116.9120 H       1  UNL1        0.2099
      2 H          12.6230   25.8590  119.3350 H       1  UNL1        0.0465
      3 H          15.6170   24.9020  118.3670 H       1  UNL1        0.0676
      4 H          17.3830   26.6300  119.0370 H       1  UNL1        0.0624
      5 H          17.0230   28.9140  118.0350 H       1  UNL1        0.0349
      6 H          15.1340   28.4390  116.5710 H       1  UNL1        0.0606
      7 H          14.1550   30.3430  118.7540 H       1  UNL1        0.0365
      8 H          10.8010   30.3510  115.8210 H       1  UNL1        0.0666
      9 H          11.8910   31.5140  113.2150 H       1  UNL1        0.0625
     10 H          10.0530   30.1430  112.1850 H       1  UNL1        0.0291
     11 H           8.1150   29.5530  113.4720 H       1  UNL1        0.0266
     12 H           9.9260   27.7450  113.0380 H       1  UNL1        0.0267
     13 H          10.0210   28.0410  116.0910 H       1  UNL1        0.0304
     14 H           9.6220   25.6810  115.8330 H       1  UNL1        0.0785
     15 H          13.2210   23.7810  117.1560 H       1  UNL1        0.0239
     16 H          15.7290   24.0020  120.4940 H       1  UNL1        0.0524
     17 H          16.0610   29.8750  120.0210 H       1  UNL1        0.0234
     18 H          16.3610   31.0900  117.9280 H       1  UNL1        0.0236
     19 H           9.8900   33.6380  116.6620 H       1  UNL1        0.0524
     20 H          13.3940   28.5180  112.1600 H       1  UNL1        0.0524
     21 H          12.7680   26.1690  113.7680 H       1  UNL1        0.0621
     22 H          13.1800   24.9640  111.6490 H       1  UNL1        0.0618
     23 H          11.4590   23.4240  110.7360 H       1  UNL1        0.0618
     24 H           9.3230   23.0920  111.9520 H       1  UNL1        0.0618
     25 H           8.8950   24.2900  114.0660 H       1  UNL1        0.0621
     26 H          15.3170   26.1880  116.3090 H       1  UNL1        0.2129
     27 H          12.3140   29.6210  117.3390 H       1  UNL1        0.0573
     28 H          13.5450   31.7180  115.4610 H       1  UNL1        0.0595
     29 H          11.9230   29.2430  111.4970 H       1  UNL1        0.0524
     30 H           9.5160   31.4440  113.2230 H       1  UNL1        0.0291
     31 H           8.8840   29.8510  115.0020 H       1  UNL1        0.0266
     32 H           8.5540   27.4300  114.0940 H       1  UNL1        0.0267
     33 H          11.4020   28.0170  115.0410 H       1  UNL1        0.0304
     34 H          11.9570   23.6230  118.3770 H       1  UNL1        0.0239
     35 H          16.9160   25.3140  120.7830 H       1  UNL1        0.0524
     36 H          16.8820   28.4080  120.5350 H       1  UNL1        0.0234
     37 H          15.1080   32.1470  117.3010 H       1  UNL1        0.0236
     38 H           9.4800   31.9220  116.8510 H       1  UNL1        0.0524
     39 H          13.3240   30.2760  111.9320 H       1  UNL1        0.0524
     40 H          13.6490   23.6810  118.8720 H       1  UNL1        0.0239
     41 H          15.5490   25.0860  121.8870 H       1  UNL1        0.0524
     42 H          15.1140   28.4330  120.3840 H       1  UNL1        0.0234
     43 H          15.8310   30.9130  116.2490 H       1  UNL1        0.0236
     44 H          11.0450   32.5560  117.4610 H       1  UNL1        0.0524
     45 C          11.5930   26.0830  117.5310 C.2     1  UNL1        0.3158
     46 C          12.8280   25.6150  118.2830 C.3     1  UNL1        0.1098
     47 C          14.1080   26.3710  117.8420 C.3     1  UNL1        0.2096
     48 C          15.3510   25.9200  118.6840 C.3     1  UNL1        0.1386
     49 C          16.5420   26.8530  118.3720 C.3     1  UNL1        0.0913
     50 C          16.1870   28.3500  118.4690 C.3     1  UNL1        0.0117
     51 C          14.9200   28.6430  117.6290 C.3     1  UNL1        0.0730
     52 C          14.4140   30.1190  117.7110 C.3     1  UNL1        0.0011
     53 C          13.1080   30.2640  116.9510 C.2     1  UNL1       -0.0802
     54 C          12.8110   31.0540  115.9040 C.2     1  UNL1       -0.0568
     55 C          11.4350   31.0570  115.2770 C.3     1  UNL1        0.1025
     56 C          11.4500   30.6720  113.7670 C.3     1  UNL1        0.0879
     57 C          10.0140   30.4650  113.2310 C.3     1  UNL1       -0.0239
     58 C           9.0850   29.4940  113.9860 C.3     1  UNL1       -0.0505
     59 C           9.4810   28.0120  114.0030 C.3     1  UNL1       -0.0493
     60 C          10.4020   27.6000  115.1620 C.3     1  UNL1       -0.0114
     61 C          10.5330   26.0750  115.3650 C.3     1  UNL1        0.1280
     62 C          12.9240   24.0910  118.1630 C.3     1  UNL1       -0.0472
     63 C          15.8620   25.0310  120.8410 C.3     1  UNL1        0.0371
     64 C          16.0470   28.7840  119.9340 C.3     1  UNL1       -0.0576
     65 C          15.4880   31.1190  117.2690 C.3     1  UNL1       -0.0566
     66 C          10.2990   32.6230  116.6640 C.3     1  UNL1        0.0373
     67 C          12.7400   29.3930  112.2070 C.3     1  UNL1        0.0369
     68 C          10.8000   25.3240  114.0720 C.ar    1  UNL1       -0.0073
     69 C          12.0050   25.5000  113.3720 C.ar    1  UNL1       -0.0551
     70 C          12.2410   24.8200  112.1770 C.ar    1  UNL1       -0.0614
     71 C          11.2750   23.9550  111.6660 C.ar    1  UNL1       -0.0617
     72 C          10.0750   23.7680  112.3500 C.ar    1  UNL1       -0.0614
     73 C           9.8380   24.4480  113.5470 C.ar    1  UNL1       -0.0551
     74 O          10.6190   26.5940  118.0740 O.2     1  UNL1       -0.2503
     75 O          14.3540   26.1060  116.4580 O.3     1  UNL1       -0.3619
     76 O          15.0490   25.9200  120.0880 O.3     1  UNL1       -0.3718
     77 O          16.9950   26.5720  117.0340 O.3     1  UNL1       -0.3887
     78 O          13.8590   27.7700  118.0530 O.3     1  UNL1       -0.3415
     79 O          10.8840   32.3800  115.3910 O.3     1  UNL1       -0.3732
     80 O          12.2530   29.5080  113.5360 O.3     1  UNL1       -0.3769
     81 O          11.6570   25.7650  116.2160 O.3     1  UNL1       -0.4563
@<TRIPOS>BOND
     1    23    71    1
     2    29    67    1
     3    22    70    1
     4    71    70   ar
     5    71    72   ar
     6    39    67    1
     7    24    72    1
     8    20    67    1
     9    70    69   ar
    10    10    57    1
    11    67    80    1
    12    72    73   ar
    13    12    59    1
    14     9    56    1
    15    30    57    1
    16    57    56    1
    17    57    58    1
    18    69    21    1
    19    69    68   ar
    20    11    58    1
    21    80    56    1
    22    73    25    1
    23    73    68   ar
    24    56    55    1
    25    58    59    1
    26    58    31    1
    27    59    32    1
    28    59    60    1
    29    68    61    1
    30    33    60    1
    31    60    61    1
    32    60    13    1
    33    55    79    1
    34    55     8    1
    35    55    54    1
    36    61    14    1
    37    61    81    1
    38    79    66    1
    39    28    54    1
    40    54    53    2
    41    81    45    1
    42    43    65    1
    43    26    75    1
    44    75    47    1
    45     6    51    1
    46    19    66    1
    47    66    38    1
    48    66    44    1
    49     1    77    1
    50    53    27    1
    51    53    52    1
    52    77    49    1
    53    15    62    1
    54    65    37    1
    55    65    52    1
    56    65    18    1
    57    45    74    2
    58    45    46    1
    59    51    52    1
    60    51    78    1
    61    51    50    1
    62    52     7    1
    63    47    78    1
    64    47    46    1
    65    47    48    1
    66     5    50    1
    67    62    46    1
    68    62    34    1
    69    62    40    1
    70    46     2    1
    71     3    48    1
    72    49    50    1
    73    49    48    1
    74    49     4    1
    75    50    64    1
    76    48    76    1
    77    64    17    1
    78    64    42    1
    79    64    36    1
    80    76    63    1
    81    16    63    1
    82    35    63    1
    83    63    41    1
