@<TRIPOS>MOLECULE
134.96266
 81 83 0 0 0
SMALL
GASTEIGER

@<TRIPOS>ATOM
      1 H          18.3120   31.5990  116.0980 H       1  UNL1        0.2099
      2 H          14.7510   26.9610  115.2500 H       1  UNL1        0.0465
      3 H          16.0420   29.9020  114.1850 H       1  UNL1        0.0676
      4 H          18.5620   29.9900  114.5940 H       1  UNL1        0.0624
      5 H          19.2420   29.6630  116.9970 H       1  UNL1        0.0349
      6 H          17.0520   29.6360  118.0520 H       1  UNL1        0.0606
      7 H          18.2590   26.8420  118.3830 H       1  UNL1        0.0365
      8 H          14.6870   26.8060  121.1810 H       1  UNL1        0.0666
      9 H          13.4610   28.4890  122.4540 H       1  UNL1        0.0625
     10 H          14.1040   28.6640  119.7080 H       1  UNL1        0.0291
     11 H          12.1390   30.3790  121.2650 H       1  UNL1        0.0266
     12 H          11.7740   31.4870  119.3700 H       1  UNL1        0.0267
     13 H          10.7030   30.5250  117.5120 H       1  UNL1        0.0304
     14 H          11.6610   27.7700  118.4600 H       1  UNL1        0.0785
     15 H          13.3630   29.5780  114.4800 H       1  UNL1        0.0239
     16 H          16.5150   28.8340  112.1910 H       1  UNL1        0.0524
     17 H          19.8620   27.3550  116.7440 H       1  UNL1        0.0234
     18 H          19.9890   28.5180  118.8620 H       1  UNL1        0.0236
     19 H          16.2900   25.4230  124.0070 H       1  UNL1        0.0524
     20 H          14.7780   31.4050  123.9140 H       1  UNL1        0.0524
     21 H          10.2630   29.4130  115.3220 H       1  UNL1        0.0621
     22 H           8.3440   28.4970  114.0700 H       1  UNL1        0.0618
     23 H           7.1840   26.4590  114.8800 H       1  UNL1        0.0618
     24 H           7.9580   25.3350  116.9500 H       1  UNL1        0.0618
     25 H           9.8750   26.2350  118.2160 H       1  UNL1        0.0621
     26 H          15.7680   30.7050  116.4980 H       1  UNL1        0.2129
     27 H          16.0220   26.8130  119.2430 H       1  UNL1        0.0573
     28 H          17.2080   28.5960  121.4510 H       1  UNL1        0.0595
     29 H          13.7430   31.4460  122.4820 H       1  UNL1        0.0524
     30 H          14.5130   30.2850  120.2770 H       1  UNL1        0.0291
     31 H          11.8350   28.8190  120.5290 H       1  UNL1        0.0266
     32 H          12.9870   30.5880  118.4880 H       1  UNL1        0.0267
     33 H          10.0900   29.6850  118.9340 H       1  UNL1        0.0304
     34 H          12.7220   27.9650  114.1370 H       1  UNL1        0.0239
     35 H          18.2260   28.8410  112.7260 H       1  UNL1        0.0524
     36 H          19.7960   28.0200  115.1180 H       1  UNL1        0.0234
     37 H          19.4100   27.8510  120.3810 H       1  UNL1        0.0236
     38 H          15.3710   25.0640  122.5330 H       1  UNL1        0.0524
     39 H          13.3880   30.3060  123.8250 H       1  UNL1        0.0524
     40 H          14.2470   28.4720  113.4190 H       1  UNL1        0.0239
     41 H          17.4550   27.3300  112.2180 H       1  UNL1        0.0524
     42 H          18.4810   26.9880  115.7130 H       1  UNL1        0.0234
     43 H          18.8730   29.4600  119.8570 H       1  UNL1        0.0236
     44 H          17.0510   25.6860  122.4300 H       1  UNL1        0.0524
     45 C          13.4230   27.7150  116.6860 C.2     1  UNL1        0.3158
     46 C          14.3930   27.9590  115.5380 C.3     1  UNL1        0.1098
     47 C          15.5900   28.8170  116.0100 C.3     1  UNL1        0.2096
     48 C          16.5540   29.1710  114.8260 C.3     1  UNL1        0.1386
     49 C          17.8300   29.8310  115.3920 C.3     1  UNL1        0.0913
     50 C          18.4780   29.0250  116.5350 C.3     1  UNL1        0.0117
     51 C          17.4120   28.6980  117.6070 C.3     1  UNL1        0.0730
     52 C          17.9250   27.8070  118.7830 C.3     1  UNL1        0.0011
     53 C          16.7650   27.4690  119.7030 C.2     1  UNL1       -0.0802
     54 C          16.5280   27.9150  120.9480 C.2     1  UNL1       -0.0568
     55 C          15.2660   27.5770  121.7080 C.3     1  UNL1        0.1025
     56 C          14.3330   28.8200  121.8760 C.3     1  UNL1        0.0879
     57 C          13.9150   29.3930  120.5040 C.3     1  UNL1       -0.0239
     58 C          12.4250   29.7380  120.4250 C.3     1  UNL1       -0.0505
     59 C          12.0970   30.4700  119.1160 C.3     1  UNL1       -0.0493
     60 C          10.9780   29.8130  118.3020 C.3     1  UNL1       -0.0114
     61 C          11.3760   28.4670  117.6640 C.3     1  UNL1        0.1280
     62 C          13.6420   28.5300  114.3280 C.3     1  UNL1       -0.0472
     63 C          17.2880   28.2810  112.7320 C.3     1  UNL1        0.0371
     64 C          19.1850   27.7760  115.9940 C.3     1  UNL1       -0.0576
     65 C          19.1120   28.4480  119.5120 C.3     1  UNL1       -0.0566
     66 C          16.1060   25.7410  122.9770 C.3     1  UNL1        0.0373
     67 C          14.1770   30.7890  123.2400 C.3     1  UNL1        0.0369
     68 C          10.2090   27.8990  116.8710 C.ar    1  UNL1       -0.0073
     69 C           9.7620   28.5200  115.6910 C.ar    1  UNL1       -0.0551
     70 C           8.6790   28.0050  114.9790 C.ar    1  UNL1       -0.0614
     71 C           8.0280   26.8610  115.4340 C.ar    1  UNL1       -0.0617
     72 C           8.4630   26.2310  116.5980 C.ar    1  UNL1       -0.0614
     73 C           9.5480   26.7450  117.3130 C.ar    1  UNL1       -0.0551
     74 O          13.4720   26.7370  117.4260 O.2     1  UNL1       -0.2503
     75 O          15.0770   30.0190  116.5960 O.3     1  UNL1       -0.3619
     76 O          16.8670   27.9980  114.0590 O.3     1  UNL1       -0.3718
     77 O          17.4790   31.1370  115.8880 O.3     1  UNL1       -0.3887
     78 O          16.2950   28.0390  116.9890 O.3     1  UNL1       -0.3415
     79 O          15.6090   27.0720  123.0090 O.3     1  UNL1       -0.3732
     80 O          15.0300   29.8280  122.6420 O.3     1  UNL1       -0.3769
     81 O          12.4690   28.6860  116.7530 O.3     1  UNL1       -0.4563
@<TRIPOS>BOND
     1    16    63    1
     2    41    63    1
     3    35    63    1
     4    63    76    1
     5    40    62    1
     6    76    48    1
     7    22    70    1
     8    34    62    1
     9     3    48    1
    10    62    15    1
    11    62    46    1
    12     4    49    1
    13    48    49    1
    14    48    47    1
    15    23    71    1
    16    70    71   ar
    17    70    69   ar
    18    36    64    1
    19     2    46    1
    20    21    69    1
    21    49    77    1
    22    49    50    1
    23    71    72   ar
    24    46    47    1
    25    46    45    1
    26    69    68   ar
    27    42    64    1
    28    77     1    1
    29    64    50    1
    30    64    17    1
    31    47    75    1
    32    47    78    1
    33    26    75    1
    34    50     5    1
    35    50    51    1
    36    72    24    1
    37    72    73   ar
    38    45    81    1
    39    45    74    2
    40    81    61    1
    41    68    73   ar
    42    68    61    1
    43    78    51    1
    44    73    25    1
    45    13    60    1
    46    51     6    1
    47    51    52    1
    48    61    60    1
    49    61    14    1
    50    60    33    1
    51    60    59    1
    52     7    52    1
    53    32    59    1
    54    52    65    1
    55    52    53    1
    56    18    65    1
    57    59    12    1
    58    59    58    1
    59    27    53    1
    60    65    43    1
    61    65    37    1
    62    53    54    2
    63    10    57    1
    64    30    57    1
    65    58    57    1
    66    58    31    1
    67    58    11    1
    68    57    56    1
    69    54    28    1
    70    54    55    1
    71     8    55    1
    72    55    56    1
    73    55    79    1
    74    56     9    1
    75    56    80    1
    76    44    66    1
    77    29    67    1
    78    38    66    1
    79    80    67    1
    80    66    79    1
    81    66    19    1
    82    67    39    1
    83    67    20    1
