@<TRIPOS>MOLECULE
151.06472
 81 83 0 0 0
SMALL
GASTEIGER

@<TRIPOS>ATOM
      1 H          15.3380   32.2660  113.6040 H       1  UNL1        0.2099
      2 H          13.6090   26.9350  115.3010 H       1  UNL1        0.0465
      3 H          15.5110   28.8630  113.5340 H       1  UNL1        0.0676
      4 H          16.3860   30.8170  114.9120 H       1  UNL1        0.0624
      5 H          14.5750   32.3400  115.8130 H       1  UNL1        0.0349
      6 H          12.7070   31.3640  114.6820 H       1  UNL1        0.0606
      7 H          12.4460   32.3840  117.1280 H       1  UNL1        0.0365
      8 H          11.4500   28.6040  119.7790 H       1  UNL1        0.0666
      9 H           9.6920   27.5020  117.5470 H       1  UNL1        0.0625
     10 H           9.2830   26.3930  119.8780 H       1  UNL1        0.0291
     11 H           8.2560   25.3880  117.9930 H       1  UNL1        0.0266
     12 H           9.7920   23.5020  116.8240 H       1  UNL1        0.0267
     13 H           9.3670   26.3560  115.8520 H       1  UNL1        0.0304
     14 H          10.5470   23.9220  114.5110 H       1  UNL1        0.0785
     15 H          13.4340   27.0050  112.2250 H       1  UNL1        0.0239
     16 H          17.1490   27.5010  114.4290 H       1  UNL1        0.0524
     17 H          14.6280   31.4470  118.0220 H       1  UNL1        0.0234
     18 H          10.8960   32.6860  115.3120 H       1  UNL1        0.0236
     19 H           8.6100   29.8900  121.4510 H       1  UNL1        0.0524
     20 H          13.6230   26.4270  117.6760 H       1  UNL1        0.0524
     21 H           8.3790   26.8430  113.6500 H       1  UNL1        0.0621
     22 H           7.3170   27.0480  111.4430 H       1  UNL1        0.0618
     23 H           7.9620   25.5270  109.5920 H       1  UNL1        0.0618
     24 H           9.7000   23.7960  109.9650 H       1  UNL1        0.0618
     25 H          10.7790   23.5740  112.1720 H       1  UNL1        0.0621
     26 H          13.5610   30.2320  112.9510 H       1  UNL1        0.2129
     27 H          12.6660   30.3410  118.5290 H       1  UNL1        0.0573
     28 H           9.8430   29.8750  117.4500 H       1  UNL1        0.0595
     29 H          13.2410   27.9420  118.4920 H       1  UNL1        0.0524
     30 H          10.8230   25.6020  119.6000 H       1  UNL1        0.0291
     31 H           9.1210   24.1470  118.8740 H       1  UNL1        0.0266
     32 H          11.0620   24.6780  117.0460 H       1  UNL1        0.0267
     33 H           8.4190   24.9190  115.5160 H       1  UNL1        0.0304
     34 H          13.6700   25.5610  113.2050 H       1  UNL1        0.0239
     35 H          17.6010   28.9860  115.3270 H       1  UNL1        0.0524
     36 H          16.1230   30.9280  117.2620 H       1  UNL1        0.0234
     37 H           9.9850   32.2690  116.7620 H       1  UNL1        0.0236
     38 H          10.3320   29.4920  121.6060 H       1  UNL1        0.0524
     39 H          12.7750   26.3800  119.2270 H       1  UNL1        0.0524
     40 H          14.9320   26.7730  113.1490 H       1  UNL1        0.0239
     41 H          17.3480   27.4590  116.1910 H       1  UNL1        0.0524
     42 H          14.7940   29.7760  117.4620 H       1  UNL1        0.0234
     43 H          10.2450   31.0530  115.4880 H       1  UNL1        0.0236
     44 H           9.7970   30.7970  120.4970 H       1  UNL1        0.0524
     45 C          11.7170   27.0050  114.4040 C.2     1  UNL1        0.3158
     46 C          13.2060   27.3580  114.3730 C.3     1  UNL1        0.1098
     47 C          13.5010   28.8870  114.3720 C.3     1  UNL1        0.2096
     48 C          15.0510   29.1450  114.4910 C.3     1  UNL1        0.1386
     49 C          15.3220   30.6480  114.7170 C.3     1  UNL1        0.0913
     50 C          14.4860   31.2460  115.8640 C.3     1  UNL1        0.0117
     51 C          12.9990   30.8960  115.6310 C.3     1  UNL1        0.0730
     52 C          12.0200   31.4590  116.7180 C.3     1  UNL1        0.0011
     53 C          11.8090   30.5050  117.8840 C.2     1  UNL1       -0.0802
     54 C          10.7050   29.7710  118.1050 C.2     1  UNL1       -0.0568
     55 C          10.5850   28.6450  119.1070 C.3     1  UNL1        0.1025
     56 C          10.4690   27.3160  118.2960 C.3     1  UNL1        0.0879
     57 C           9.9850   26.0910  119.0930 C.3     1  UNL1       -0.0239
     58 C           9.2640   25.0280  118.2350 C.3     1  UNL1       -0.0505
     59 C           9.9770   24.5770  116.9510 C.3     1  UNL1       -0.0493
     60 C           9.4410   25.2810  115.6890 C.3     1  UNL1       -0.0114
     61 C          10.3110   24.9940  114.4510 C.3     1  UNL1        0.1280
     62 C          13.8470   26.6420  113.1720 C.3     1  UNL1       -0.0472
     63 C          17.0050   28.0700  115.3520 C.3     1  UNL1        0.0371
     64 C          15.0340   30.8150  117.2250 C.3     1  UNL1       -0.0576
     65 C          10.7070   31.8840  116.0340 C.3     1  UNL1       -0.0566
     66 C           9.5540   29.8120  120.9060 C.3     1  UNL1        0.0373
     67 C          12.8740   26.9340  118.2910 C.3     1  UNL1        0.0369
     68 C           9.6400   25.1700  113.0960 C.ar    1  UNL1       -0.0073
     69 C           8.6640   26.1490  112.8620 C.ar    1  UNL1       -0.0551
     70 C           8.0640   26.2760  111.6070 C.ar    1  UNL1       -0.0614
     71 C           8.4300   25.4250  110.5670 C.ar    1  UNL1       -0.0617
     72 C           9.4070   24.4550  110.7770 C.ar    1  UNL1       -0.0614
     73 C          10.0120   24.3330  112.0290 C.ar    1  UNL1       -0.0551
     74 O          10.7740   27.7780  114.3400 O.2     1  UNL1       -0.2503
     75 O          13.0240   29.4380  113.1390 O.3     1  UNL1       -0.3619
     76 O          15.6280   28.3600  115.5490 O.3     1  UNL1       -0.3718
     77 O          15.0160   31.3510  113.4990 O.3     1  UNL1       -0.3887
     78 O          12.8300   29.4810  115.4910 O.3     1  UNL1       -0.3415
     79 O           9.3900   28.8520  119.8700 O.3     1  UNL1       -0.3732
     80 O          11.6600   26.9780  117.5580 O.3     1  UNL1       -0.3769
     81 O          11.6040   25.6390  114.5040 O.3     1  UNL1       -0.4563
@<TRIPOS>BOND
     1    23    71    1
     2    24    72    1
     3    71    72   ar
     4    71    70   ar
     5    72    73   ar
     6    22    70    1
     7    70    69   ar
     8    73    25    1
     9    73    68   ar
    10    15    62    1
    11    69    68   ar
    12    69    21    1
    13    26    75    1
    14    68    61    1
    15    75    47    1
    16    40    62    1
    17    62    34    1
    18    62    46    1
    19    77     1    1
    20    77    49    1
    21     3    48    1
    22    74    45    2
    23    47    46    1
    24    47    48    1
    25    47    78    1
    26    46    45    1
    27    46     2    1
    28    45    81    1
    29    16    63    1
    30    61    81    1
    31    61    14    1
    32    61    60    1
    33    48    49    1
    34    48    76    1
    35     6    51    1
    36    49     4    1
    37    49    50    1
    38    18    65    1
    39    35    63    1
    40    63    76    1
    41    63    41    1
    42    43    65    1
    43    78    51    1
    44    33    60    1
    45    51    50    1
    46    51    52    1
    47    60    13    1
    48    60    59    1
    49     5    50    1
    50    50    64    1
    51    65    52    1
    52    65    37    1
    53    52     7    1
    54    52    53    1
    55    12    59    1
    56    59    32    1
    57    59    58    1
    58    64    36    1
    59    64    42    1
    60    64    17    1
    61    28    54    1
    62     9    56    1
    63    80    67    1
    64    80    56    1
    65    20    67    1
    66    53    54    2
    67    53    27    1
    68    11    58    1
    69    54    55    1
    70    58    31    1
    71    58    57    1
    72    67    29    1
    73    67    39    1
    74    56    57    1
    75    56    55    1
    76    57    30    1
    77    57    10    1
    78    55     8    1
    79    55    79    1
    80    79    66    1
    81    44    66    1
    82    66    19    1
    83    66    38    1
