@<TRIPOS>MOLECULE
131.20933
 81 83 0 0 0
SMALL
GASTEIGER

@<TRIPOS>ATOM
      1 H          11.9260   32.1970  120.6680 H       1  UNL1        0.2099
      2 H          10.1540   26.5810  119.9670 H       1  UNL1        0.0465
      3 H          12.6130   28.8450  120.7370 H       1  UNL1        0.0676
      4 H          11.7290   30.6780  122.2720 H       1  UNL1        0.0624
      5 H           9.7330   31.9120  121.3920 H       1  UNL1        0.0349
      6 H           9.6010   30.9800  119.1420 H       1  UNL1        0.0606
      7 H           7.1130   30.0560  120.6600 H       1  UNL1        0.0365
      8 H           5.5110   29.4030  116.5040 H       1  UNL1        0.0666
      9 H           6.0340   30.3600  114.2090 H       1  UNL1        0.0625
     10 H           7.3280   28.5310  115.3100 H       1  UNL1        0.0291
     11 H           9.3060   30.3810  113.8800 H       1  UNL1        0.0266
     12 H          10.1350   28.1960  112.9730 H       1  UNL1        0.0267
     13 H          10.1690   28.7560  115.9350 H       1  UNL1        0.0304
     14 H           9.8920   26.1240  115.5290 H       1  UNL1        0.0785
     15 H          12.9690   27.0550  118.8580 H       1  UNL1        0.0239
     16 H          13.0470   27.6480  122.6580 H       1  UNL1        0.0524
     17 H           8.1190   30.6910  122.6970 H       1  UNL1        0.0234
     18 H           7.5270   32.4020  121.2560 H       1  UNL1        0.0236
     19 H           2.6090   31.3520  116.7900 H       1  UNL1        0.0524
     20 H           6.9440   33.7410  114.1840 H       1  UNL1        0.0524
     21 H          13.5410   27.0460  115.7200 H       1  UNL1        0.0621
     22 H          15.2680   25.9480  114.3370 H       1  UNL1        0.0618
     23 H          14.6120   24.3350  112.5690 H       1  UNL1        0.0618
     24 H          12.2150   23.8220  112.1890 H       1  UNL1        0.0618
     25 H          10.4770   24.9070  113.5620 H       1  UNL1        0.0621
     26 H          11.7310   30.1850  118.8590 H       1  UNL1        0.2129
     27 H           6.9700   29.1380  118.4560 H       1  UNL1        0.0573
     28 H           6.4860   32.0750  117.6860 H       1  UNL1        0.0595
     29 H           5.6940   32.5650  113.7380 H       1  UNL1        0.0524
     30 H           8.3940   29.7410  116.0320 H       1  UNL1        0.0291
     31 H           8.0620   29.4770  113.0140 H       1  UNL1        0.0266
     32 H           8.9110   27.3490  113.9060 H       1  UNL1        0.0267
     33 H          11.4780   28.6700  114.8120 H       1  UNL1        0.0304
     34 H          12.2100   25.4630  119.0100 H       1  UNL1        0.0239
     35 H          12.1900   28.9400  123.5590 H       1  UNL1        0.0524
     36 H           9.6790   30.3660  123.4350 H       1  UNL1        0.0234
     37 H           6.1930   32.3390  120.1230 H       1  UNL1        0.0236
     38 H           3.2650   29.7050  116.8330 H       1  UNL1        0.0524
     39 H           5.7920   33.2160  115.4120 H       1  UNL1        0.0524
     40 H          12.5280   26.4200  120.4500 H       1  UNL1        0.0239
     41 H          11.7110   27.2470  123.7540 H       1  UNL1        0.0524
     42 H           8.9040   29.1420  122.4090 H       1  UNL1        0.0234
     43 H           7.8060   32.8340  119.5660 H       1  UNL1        0.0236
     44 H           3.7490   30.9090  118.0720 H       1  UNL1        0.0524
     45 C          10.2530   26.8830  117.8890 C.2     1  UNL1        0.3158
     46 C          10.8190   27.1230  119.2800 C.3     1  UNL1        0.1098
     47 C          10.7760   28.6410  119.5980 C.3     1  UNL1        0.2096
     48 C          11.5380   28.9730  120.9260 C.3     1  UNL1        0.1386
     49 C          11.2880   30.4490  121.2960 C.3     1  UNL1        0.0913
     50 C           9.7950   30.8200  121.3030 C.3     1  UNL1        0.0117
     51 C           9.1420   30.4060  119.9580 C.3     1  UNL1        0.0730
     52 C           7.6020   30.6800  119.9000 C.3     1  UNL1        0.0011
     53 C           6.9860   30.2220  118.5840 C.2     1  UNL1       -0.0802
     54 C           6.4570   30.9920  117.6140 C.2     1  UNL1       -0.0568
     55 C           5.7740   30.4610  116.3730 C.3     1  UNL1        0.1025
     56 C           6.6570   30.5720  115.0880 C.3     1  UNL1        0.0879
     57 C           7.7750   29.5210  115.1580 C.3     1  UNL1       -0.0239
     58 C           8.6800   29.4830  113.9200 C.3     1  UNL1       -0.0505
     59 C           9.5660   28.2280  113.9100 C.3     1  UNL1       -0.0493
     60 C          10.5410   28.1710  115.0920 C.3     1  UNL1       -0.0114
     61 C          10.8030   26.7340  115.5780 C.3     1  UNL1        0.1280
     62 C          12.2110   26.4850  119.4060 C.3     1  UNL1       -0.0472
     63 C          12.0780   27.9870  123.0380 C.3     1  UNL1        0.0371
     64 C           9.0890   30.2140  122.5250 C.3     1  UNL1       -0.0576
     65 C           7.2670   32.1450  120.2250 C.3     1  UNL1       -0.0566
     66 C           3.4970   30.7580  117.0190 C.3     1  UNL1        0.0373
     67 C           6.3640   32.8860  114.5420 C.3     1  UNL1        0.0369
     68 C          11.8790   26.0530  114.7520 C.ar    1  UNL1       -0.0073
     69 C          13.2400   26.3370  114.9510 C.ar    1  UNL1       -0.0551
     70 C          14.2190   25.7200  114.1710 C.ar    1  UNL1       -0.0614
     71 C          13.8500   24.8150  113.1780 C.ar    1  UNL1       -0.0617
     72 C          12.5040   24.5260  112.9650 C.ar    1  UNL1       -0.0614
     73 C          11.5230   25.1420  113.7450 C.ar    1  UNL1       -0.0551
     74 O           9.0550   26.7920  117.6420 O.2     1  UNL1       -0.2503
     75 O          11.3890   29.3390  118.5060 O.3     1  UNL1       -0.3619
     76 O          11.1320   28.0880  121.9820 O.3     1  UNL1       -0.3718
     77 O          11.9700   31.2790  120.3390 O.3     1  UNL1       -0.3887
     78 O           9.3880   29.0110  119.7170 O.3     1  UNL1       -0.3415
     79 O           4.5520   31.1940  116.1700 O.3     1  UNL1       -0.3732
     80 O           7.2760   31.8570  114.8980 O.3     1  UNL1       -0.3769
     81 O          11.2410   26.7910  116.9500 O.3     1  UNL1       -0.4563
@<TRIPOS>BOND
     1    24    72    1
     2    23    71    1
     3    72    71   ar
     4    72    73   ar
     5    12    59    1
     6    31    58    1
     7    71    70   ar
     8    25    73    1
     9    29    67    1
    10    73    68   ar
    11    11    58    1
    12    32    59    1
    13    59    58    1
    14    59    60    1
    15    58    57    1
    16    70    22    1
    17    70    69   ar
    18    20    67    1
    19     9    56    1
    20    67    80    1
    21    67    39    1
    22    68    69   ar
    23    68    61    1
    24    33    60    1
    25    80    56    1
    26    69    21    1
    27    56    57    1
    28    56    55    1
    29    60    61    1
    30    60    13    1
    31    57    10    1
    32    57    30    1
    33    14    61    1
    34    61    81    1
    35    79    55    1
    36    79    66    1
    37    55     8    1
    38    55    54    1
    39    19    66    1
    40    38    66    1
    41    81    45    1
    42    66    44    1
    43    54    28    1
    44    54    53    2
    45    74    45    2
    46    45    46    1
    47    27    53    1
    48    75    26    1
    49    75    47    1
    50    53    52    1
    51    15    62    1
    52    34    62    1
    53     6    51    1
    54    46    62    1
    55    46    47    1
    56    46     2    1
    57    62    40    1
    58    43    65    1
    59    47    78    1
    60    47    48    1
    61    78    51    1
    62    52    51    1
    63    52    65    1
    64    52     7    1
    65    51    50    1
    66    37    65    1
    67    65    18    1
    68    77     1    1
    69    77    49    1
    70     3    48    1
    71    48    49    1
    72    48    76    1
    73    49    50    1
    74    49     4    1
    75    50     5    1
    76    50    64    1
    77    76    63    1
    78    42    64    1
    79    64    17    1
    80    64    36    1
    81    16    63    1
    82    63    35    1
    83    63    41    1
