@<TRIPOS>MOLECULE
150.61462
 81 83 0 0 0
SMALL
GASTEIGER

@<TRIPOS>ATOM
      1 H          18.3200   25.7300  113.5550 H       1  UNL1        0.2099
      2 H          12.7660   27.3910  114.1020 H       1  UNL1        0.0465
      3 H          15.8440   28.0660  113.7860 H       1  UNL1        0.0676
      4 H          16.9730   26.6010  112.0310 H       1  UNL1        0.0624
      5 H          16.9230   24.1230  112.5640 H       1  UNL1        0.0349
      6 H          16.0180   24.3140  114.7800 H       1  UNL1        0.0606
      7 H          15.6790   22.1650  113.6080 H       1  UNL1        0.0365
      8 H          11.6460   21.6000  111.4570 H       1  UNL1        0.0666
      9 H          11.1660   24.0000  112.0580 H       1  UNL1        0.0625
     10 H          10.1520   23.2790  114.4260 H       1  UNL1        0.0291
     11 H           8.8490   25.5050  112.7980 H       1  UNL1        0.0266
     12 H           9.5100   25.0860  115.7660 H       1  UNL1        0.0267
     13 H           8.4940   27.2860  116.1350 H       1  UNL1        0.0304
     14 H          10.8220   27.5740  114.1660 H       1  UNL1        0.0785
     15 H          14.5030   28.6750  116.3010 H       1  UNL1        0.0239
     16 H          15.0140   29.4230  112.1060 H       1  UNL1        0.0524
     17 H          15.2510   23.6710  110.9860 H       1  UNL1        0.0234
     18 H          15.4980   22.4240  116.0080 H       1  UNL1        0.0236
     19 H          10.3040   18.8260  113.1810 H       1  UNL1        0.0524
     20 H           8.0240   22.3630  110.1240 H       1  UNL1        0.0524
     21 H          10.1510   28.9460  117.6180 H       1  UNL1        0.0621
     22 H           9.9340   31.3600  118.0810 H       1  UNL1        0.0618
     23 H           9.9230   32.9950  116.2150 H       1  UNL1        0.0618
     24 H          10.1270   32.2040  113.8730 H       1  UNL1        0.0618
     25 H          10.3450   29.7960  113.3880 H       1  UNL1        0.0621
     26 H          16.4180   26.3640  115.4400 H       1  UNL1        0.2129
     27 H          13.8990   22.3870  111.9800 H       1  UNL1        0.0573
     28 H          12.1260   22.1960  114.4570 H       1  UNL1        0.0595
     29 H           9.2690   21.2320  110.6540 H       1  UNL1        0.0524
     30 H           8.6410   23.1680  113.5360 H       1  UNL1        0.0291
     31 H          10.4860   25.5850  113.4480 H       1  UNL1        0.0266
     32 H           7.9110   25.2190  115.0520 H       1  UNL1        0.0267
     33 H           8.3500   27.5710  114.4040 H       1  UNL1        0.0304
     34 H          12.9050   29.2640  115.9190 H       1  UNL1        0.0239
     35 H          15.8540   28.2570  111.0330 H       1  UNL1        0.0524
     36 H          15.6640   25.3270  110.6210 H       1  UNL1        0.0234
     37 H          14.2800   21.2730  115.4640 H       1  UNL1        0.0236
     38 H          11.1010   19.3640  111.6900 H       1  UNL1        0.0524
     39 H           8.1240   21.9440  111.8390 H       1  UNL1        0.0524
     40 H          14.1590   29.3280  114.6900 H       1  UNL1        0.0239
     41 H          14.1520   28.6640  110.7530 H       1  UNL1        0.0524
     42 H          14.1850   24.9800  111.5340 H       1  UNL1        0.0234
     43 H          13.8090   22.9310  115.9010 H       1  UNL1        0.0236
     44 H          11.9610   19.4520  113.2630 H       1  UNL1        0.0524
     45 C          12.4970   26.6580  116.0730 C.2     1  UNL1        0.3158
     46 C          13.3650   27.3200  115.0100 C.3     1  UNL1        0.1098
     47 C          14.6270   26.4750  114.6390 C.3     1  UNL1        0.2096
     48 C          15.3830   27.1360  113.4260 C.3     1  UNL1        0.1386
     49 C          16.5150   26.2010  112.9420 C.3     1  UNL1        0.0913
     50 C          16.0350   24.7560  112.6930 C.3     1  UNL1        0.0117
     51 C          15.2920   24.2610  113.9570 C.3     1  UNL1        0.0730
     52 C          14.8300   22.7670  113.9600 C.3     1  UNL1        0.0011
     53 C          13.6700   22.4290  113.0400 C.2     1  UNL1       -0.0802
     54 C          12.4040   22.1680  113.4070 C.2     1  UNL1       -0.0568
     55 C          11.2690   21.9040  112.4420 C.3     1  UNL1        0.1025
     56 C          10.4340   23.2080  112.2640 C.3     1  UNL1        0.0879
     57 C           9.6380   23.6180  113.5210 C.3     1  UNL1       -0.0239
     58 C           9.4980   25.1400  113.6020 C.3     1  UNL1       -0.0505
     59 C           8.9460   25.5700  114.9600 C.3     1  UNL1       -0.0493
     60 C           8.9730   27.0880  115.1670 C.3     1  UNL1       -0.0114
     61 C          10.3880   27.7060  115.1590 C.3     1  UNL1        0.1280
     62 C          13.7530   28.7200  115.5040 C.3     1  UNL1       -0.0472
     63 C          14.9090   28.5020  111.5240 C.3     1  UNL1        0.0371
     64 C          15.2290   24.6850  111.3950 C.3     1  UNL1       -0.0576
     65 C          14.5820   22.3250  115.4150 C.3     1  UNL1       -0.0566
     66 C          10.9950   19.5620  112.7610 C.3     1  UNL1        0.0373
     67 C           8.7140   22.1290  110.9400 C.3     1  UNL1        0.0369
     68 C          10.2790   29.1890  115.4680 C.ar    1  UNL1       -0.0073
     69 C          10.1510   29.6510  116.7880 C.ar    1  UNL1       -0.0551
     70 C          10.0280   31.0150  117.0540 C.ar    1  UNL1       -0.0614
     71 C          10.0230   31.9330  116.0060 C.ar    1  UNL1       -0.0617
     72 C          10.1390   31.4880  114.6900 C.ar    1  UNL1       -0.0614
     73 C          10.2640   30.1240  114.4220 C.ar    1  UNL1       -0.0551
     74 O          12.9310   25.8820  116.9200 O.2     1  UNL1       -0.2503
     75 O          15.5030   26.4450  115.7730 O.3     1  UNL1       -0.3619
     76 O          14.4710   27.4360  112.3570 O.3     1  UNL1       -0.3718
     77 O          17.5500   26.1880  113.9410 O.3     1  UNL1       -0.3887
     78 O          14.2050   25.1440  114.2810 O.3     1  UNL1       -0.3415
     79 O          10.4480   20.8570  112.9780 O.3     1  UNL1       -0.3732
     80 O           9.5960   23.2310  111.0920 O.3     1  UNL1       -0.3769
     81 O          11.1870   27.0240  116.1580 O.3     1  UNL1       -0.4563
@<TRIPOS>BOND
     1    20    67    1
     2    36    64    1
     3    29    67    1
     4    41    63    1
     5    67    80    1
     6    67    39    1
     7    17    64    1
     8    35    63    1
     9    80    56    1
    10    64    42    1
    11    64    50    1
    12     8    55    1
    13    63    16    1
    14    63    76    1
    15    38    66    1
    16    27    53    1
    17     4    49    1
    18     9    56    1
    19    56    55    1
    20    56    57    1
    21    76    48    1
    22    55    79    1
    23    55    54    1
    24     5    50    1
    25    50    49    1
    26    50    51    1
    27    66    79    1
    28    66    19    1
    29    66    44    1
    30    11    58    1
    31    49    48    1
    32    49    77    1
    33    53    54    2
    34    53    52    1
    35    25    73    1
    36    54    28    1
    37    48     3    1
    38    48    47    1
    39    31    58    1
    40    57    30    1
    41    57    58    1
    42    57    10    1
    43     1    77    1
    44    58    59    1
    45     7    52    1
    46    24    72    1
    47    51    52    1
    48    51    78    1
    49    51     6    1
    50    52    65    1
    51     2    46    1
    52    14    61    1
    53    78    47    1
    54    33    60    1
    55    73    72   ar
    56    73    68   ar
    57    47    46    1
    58    47    75    1
    59    72    71   ar
    60    40    62    1
    61    59    32    1
    62    59    60    1
    63    59    12    1
    64    46    62    1
    65    46    45    1
    66    61    60    1
    67    61    68    1
    68    61    81    1
    69    60    13    1
    70    65    37    1
    71    65    43    1
    72    65    18    1
    73    26    75    1
    74    68    69   ar
    75    62    34    1
    76    62    15    1
    77    71    23    1
    78    71    70   ar
    79    45    81    1
    80    45    74    2
    81    69    70   ar
    82    69    21    1
    83    70    22    1
