@<TRIPOS>MOLECULE
130.64625
 81 83 0 0 0
SMALL
GASTEIGER

@<TRIPOS>ATOM
      1 H          18.3810   30.7400  116.2320 H       1  UNL1        0.2099
      2 H          14.6110   26.4400  114.7650 H       1  UNL1        0.0465
      3 H          16.0560   29.4350  114.0950 H       1  UNL1        0.0676
      4 H          18.5670   29.3030  114.5560 H       1  UNL1        0.0624
      5 H          19.1770   28.6340  116.8830 H       1  UNL1        0.0349
      6 H          16.9570   28.7210  117.9090 H       1  UNL1        0.0606
      7 H          17.7950   25.7870  118.0200 H       1  UNL1        0.0365
      8 H          15.4350   24.3620  121.5680 H       1  UNL1        0.0666
      9 H          13.4950   24.6940  119.8220 H       1  UNL1        0.0625
     10 H          13.5860   27.1650  119.7630 H       1  UNL1        0.0291
     11 H          10.9580   26.2560  121.0530 H       1  UNL1        0.0266
     12 H          11.1340   28.6880  120.5970 H       1  UNL1        0.0267
     13 H          11.2140   29.5980  118.3910 H       1  UNL1        0.0304
     14 H          11.1420   26.6880  117.4270 H       1  UNL1        0.0785
     15 H          13.3610   29.1860  114.2360 H       1  UNL1        0.0239
     16 H          16.5330   28.6110  111.9980 H       1  UNL1        0.0524
     17 H          19.5610   26.2980  116.3830 H       1  UNL1        0.0234
     18 H          19.8600   27.0870  118.4590 H       1  UNL1        0.0236
     19 H          15.4320   26.7510  124.1090 H       1  UNL1        0.0524
     20 H          12.2530   22.7620  122.4650 H       1  UNL1        0.0524
     21 H          10.6390   30.0360  115.7680 H       1  UNL1        0.0621
     22 H           8.4630   30.7330  114.8310 H       1  UNL1        0.0618
     23 H           6.4540   29.3120  115.1510 H       1  UNL1        0.0618
     24 H           6.6290   27.1860  116.4150 H       1  UNL1        0.0618
     25 H           8.7940   26.4740  117.3590 H       1  UNL1        0.0621
     26 H          15.7240   29.9790  116.4630 H       1  UNL1        0.2129
     27 H          16.5290   27.5450  120.2300 H       1  UNL1        0.0573
     28 H          16.1400   24.6560  119.2950 H       1  UNL1        0.0595
     29 H          12.3270   22.9120  120.6990 H       1  UNL1        0.0524
     30 H          13.1120   27.2600  121.4600 H       1  UNL1        0.0291
     31 H          11.3560   25.8760  119.3910 H       1  UNL1        0.0266
     32 H           9.8720   27.8960  119.6690 H       1  UNL1        0.0267
     33 H          12.6480   28.6460  118.5960 H       1  UNL1        0.0304
     34 H          12.6820   27.6490  113.6800 H       1  UNL1        0.0239
     35 H          18.2240   28.4180  112.5620 H       1  UNL1        0.0524
     36 H          19.5790   27.1430  114.8430 H       1  UNL1        0.0234
     37 H          19.2510   26.4640  119.9820 H       1  UNL1        0.0236
     38 H          13.9180   26.0660  123.5140 H       1  UNL1        0.0524
     39 H          13.8340   22.7650  121.6590 H       1  UNL1        0.0524
     40 H          14.2550   28.1710  113.0940 H       1  UNL1        0.0239
     41 H          17.3600   27.0490  111.8460 H       1  UNL1        0.0524
     42 H          18.1610   26.1920  115.3270 H       1  UNL1        0.0234
     43 H          18.9910   28.1640  119.5600 H       1  UNL1        0.0236
     44 H          15.3660   25.0220  123.7230 H       1  UNL1        0.0524
     45 C          13.2620   27.0880  116.2270 C.2     1  UNL1        0.3158
     46 C          14.2800   27.4160  115.1470 C.3     1  UNL1        0.1098
     47 C          15.4860   28.1690  115.7650 C.3     1  UNL1        0.2096
     48 C          16.5060   28.6000  114.6520 C.3     1  UNL1        0.1386
     49 C          17.8020   29.1040  115.3140 C.3     1  UNL1        0.0913
     50 C          18.3580   28.1230  116.3610 C.3     1  UNL1        0.0117
     51 C          17.2520   27.7970  117.3940 C.3     1  UNL1        0.0730
     52 C          17.6870   26.7740  118.4870 C.3     1  UNL1        0.0011
     53 C          16.6700   26.6610  119.6090 C.2     1  UNL1       -0.0802
     54 C          16.0110   25.5330  119.9260 C.2     1  UNL1       -0.0568
     55 C          15.1240   25.3220  121.1380 C.3     1  UNL1        0.1025
     56 C          13.6130   25.2590  120.7560 C.3     1  UNL1        0.0879
     57 C          13.0140   26.6610  120.5470 C.3     1  UNL1       -0.0239
     58 C          11.5250   26.6110  120.1840 C.3     1  UNL1       -0.0505
     59 C          10.9600   27.9790  119.7790 C.3     1  UNL1       -0.0493
     60 C          11.5610   28.5610  118.4930 C.3     1  UNL1       -0.0114
     61 C          11.2110   27.7610  117.2260 C.3     1  UNL1        0.1280
     62 C          13.6100   28.1510  113.9770 C.3     1  UNL1       -0.0472
     63 C          17.2480   27.9350  112.4760 C.3     1  UNL1        0.0371
     64 C          18.9390   26.8700  115.6890 C.3     1  UNL1       -0.0576
     65 C          19.0200   27.1460  119.1550 C.3     1  UNL1       -0.0566
     66 C          15.0060   26.0120  123.4260 C.3     1  UNL1        0.0373
     67 C          12.8250   23.1850  121.6340 C.3     1  UNL1        0.0369
     68 C           9.8830   28.2000  116.6300 C.ar    1  UNL1       -0.0073
     69 C           9.7660   29.4030  115.9140 C.ar    1  UNL1       -0.0551
     70 C           8.5380   29.8000  115.3840 C.ar    1  UNL1       -0.0614
     71 C           7.4100   29.0030  115.5640 C.ar    1  UNL1       -0.0617
     72 C           7.5090   27.8080  116.2740 C.ar    1  UNL1       -0.0614
     73 C           8.7370   27.4090  116.8050 C.ar    1  UNL1       -0.0551
     74 O          13.3350   26.1110  116.9650 O.2     1  UNL1       -0.2503
     75 O          14.9910   29.3310  116.4400 O.3     1  UNL1       -0.3619
     76 O          16.7690   27.5160  113.7470 O.3     1  UNL1       -0.3718
     77 O          17.5250   30.3640  115.9530 O.3     1  UNL1       -0.3887
     78 O          16.1060   27.2750  116.7050 O.3     1  UNL1       -0.3415
     79 O          15.4280   26.3390  122.1090 O.3     1  UNL1       -0.3732
     80 O          12.8500   24.5980  121.7870 O.3     1  UNL1       -0.3769
     81 O          12.2380   27.9900  116.2430 O.3     1  UNL1       -0.4563
@<TRIPOS>BOND
     1    41    63    1
     2    16    63    1
     3    63    35    1
     4    63    76    1
     5    40    62    1
     6    34    62    1
     7    76    48    1
     8    62    15    1
     9    62    46    1
    10     3    48    1
    11     4    49    1
    12    48    49    1
    13    48    47    1
    14     2    46    1
    15    22    70    1
    16    36    64    1
    17    46    47    1
    18    46    45    1
    19    23    71    1
    20    49    77    1
    21    49    50    1
    22    42    64    1
    23    70    71   ar
    24    70    69   ar
    25    71    72   ar
    26    64    50    1
    27    64    17    1
    28    47    75    1
    29    47    78    1
    30    21    69    1
    31    69    68   ar
    32    77     1    1
    33    45    81    1
    34    45    74    2
    35    81    61    1
    36    72    24    1
    37    72    73   ar
    38    50     5    1
    39    50    51    1
    40    75    26    1
    41    68    73   ar
    42    68    61    1
    43    78    51    1
    44    73    25    1
    45    61    14    1
    46    61    60    1
    47    51     6    1
    48    51    52    1
    49     7    52    1
    50    13    60    1
    51    18    65    1
    52    52    65    1
    53    52    53    1
    54    60    33    1
    55    60    59    1
    56    65    43    1
    57    65    37    1
    58    28    54    1
    59    31    58    1
    60    53    54    2
    61    53    27    1
    62    32    59    1
    63    10    57    1
    64    59    58    1
    65    59    12    1
    66     9    56    1
    67    54    55    1
    68    58    57    1
    69    58    11    1
    70    57    56    1
    71    57    30    1
    72    29    67    1
    73    56    55    1
    74    56    80    1
    75    55     8    1
    76    55    79    1
    77    67    39    1
    78    67    80    1
    79    67    20    1
    80    79    66    1
    81    66    38    1
    82    66    44    1
    83    66    19    1
