@<TRIPOS>MOLECULE
133.51003
 81 83 0 0 0
SMALL
GASTEIGER

@<TRIPOS>ATOM
      1 H          14.2570   29.7430  120.6240 H       1  UNL1        0.2099
      2 H          12.2800   24.5760  118.7220 H       1  UNL1        0.0465
      3 H          14.7060   26.5480  119.5080 H       1  UNL1        0.0676
      4 H          14.1670   27.8000  121.6900 H       1  UNL1        0.0624
      5 H          12.1560   29.3110  121.5400 H       1  UNL1        0.0349
      6 H          11.6990   29.0960  119.1520 H       1  UNL1        0.0606
      7 H           9.3000   27.8470  120.5730 H       1  UNL1        0.0365
      8 H           8.2420   28.5080  116.1770 H       1  UNL1        0.0666
      9 H           8.0100   31.5370  115.9470 H       1  UNL1        0.0625
     10 H           8.0800   31.3290  113.6800 H       1  UNL1        0.0291
     11 H          10.1370   30.0270  113.3010 H       1  UNL1        0.0266
     12 H           9.4480   27.5110  112.7100 H       1  UNL1        0.0267
     13 H          10.4290   28.3300  115.4870 H       1  UNL1        0.0304
     14 H           9.6320   25.9730  115.3900 H       1  UNL1        0.0785
     15 H          14.1940   25.6060  116.5570 H       1  UNL1        0.0239
     16 H          15.3430   24.6680  120.7030 H       1  UNL1        0.0524
     17 H          10.6200   27.7700  122.5970 H       1  UNL1        0.0234
     18 H           9.9340   29.9040  121.7950 H       1  UNL1        0.0236
     19 H           4.8030   28.5340  116.9140 H       1  UNL1        0.0524
     20 H          11.4710   32.0940  115.6070 H       1  UNL1        0.0524
     21 H          12.8630   26.2560  113.3790 H       1  UNL1        0.0621
     22 H          13.3860   24.7660  111.4810 H       1  UNL1        0.0618
     23 H          11.7860   22.9920  110.8090 H       1  UNL1        0.0618
     24 H           9.6570   22.7110  112.0500 H       1  UNL1        0.0618
     25 H           9.1170   24.1930  113.9460 H       1  UNL1        0.0621
     26 H          13.6310   28.3710  118.2870 H       1  UNL1        0.2129
     27 H           9.2130   27.6850  118.1170 H       1  UNL1        0.0573
     28 H           8.3290   30.6060  118.4500 H       1  UNL1        0.0595
     29 H          10.1620   32.3100  114.4300 H       1  UNL1        0.0524
     30 H           7.1580   29.9060  114.0800 H       1  UNL1        0.0291
     31 H           8.7890   29.5970  112.2810 H       1  UNL1        0.0266
     32 H           8.3690   27.6630  114.0830 H       1  UNL1        0.0267
     33 H          11.4230   28.0840  114.0830 H       1  UNL1        0.0304
     34 H          13.6450   23.9400  116.7380 H       1  UNL1        0.0239
     35 H          14.9690   25.7320  122.0980 H       1  UNL1        0.0524
     36 H          12.2440   27.2430  123.0220 H       1  UNL1        0.0234
     37 H           8.4860   30.2040  120.8490 H       1  UNL1        0.0236
     38 H           6.1410   27.5840  116.2400 H       1  UNL1        0.0524
     39 H           9.9370   32.8120  116.1360 H       1  UNL1        0.0524
     40 H          14.6330   24.6810  118.0030 H       1  UNL1        0.0239
     41 H          14.2750   24.1030  122.0030 H       1  UNL1        0.0524
     42 H          11.3180   26.3700  121.7870 H       1  UNL1        0.0234
     43 H          10.0560   30.8090  120.2810 H       1  UNL1        0.0236
     44 H           6.1510   28.0710  117.9680 H       1  UNL1        0.0524
     45 C          11.3980   25.3660  117.0120 C.2     1  UNL1        0.3158
     46 C          12.5600   25.3450  117.9890 C.3     1  UNL1        0.1098
     47 C          12.6950   26.7040  118.7150 C.3     1  UNL1        0.2096
     48 C          13.6900   26.6140  119.9210 C.3     1  UNL1        0.1386
     49 C          13.5840   27.9040  120.7680 C.3     1  UNL1        0.0913
     50 C          12.1320   28.2970  121.1190 C.3     1  UNL1        0.0117
     51 C          11.2890   28.3310  119.8250 C.3     1  UNL1        0.0730
     52 C           9.7750   28.6590  120.0060 C.3     1  UNL1        0.0011
     53 C           9.1090   28.6410  118.6370 C.2     1  UNL1       -0.0802
     54 C           8.4670   29.6310  117.9940 C.2     1  UNL1       -0.0568
     55 C           7.9570   29.4850  116.5770 C.3     1  UNL1        0.1025
     56 C           8.5130   30.6050  115.6470 C.3     1  UNL1        0.0879
     57 C           8.1580   30.3460  114.1650 C.3     1  UNL1       -0.0239
     58 C           9.1560   29.5390  113.3140 C.3     1  UNL1       -0.0505
     59 C           9.2990   28.0510  113.6540 C.3     1  UNL1       -0.0493
     60 C          10.4960   27.7480  114.5640 C.3     1  UNL1       -0.0114
     61 C          10.5970   26.2620  114.9550 C.3     1  UNL1        0.1280
     62 C          13.8310   24.8720  117.2840 C.3     1  UNL1       -0.0472
     63 C          14.5720   24.9760  121.4160 C.3     1  UNL1        0.0371
     64 C          11.5480   27.3620  122.1850 C.3     1  UNL1       -0.0576
     65 C           9.5540   29.9680  120.7720 C.3     1  UNL1       -0.0566
     66 C           5.8840   28.3740  116.9520 C.3     1  UNL1        0.0373
     67 C          10.3870   32.0680  115.4720 C.3     1  UNL1        0.0369
     68 C          10.9390   25.3520  113.7900 C.ar    1  UNL1       -0.0073
     69 C          12.1470   25.4910  113.0870 C.ar    1  UNL1       -0.0551
     70 C          12.4480   24.6470  112.0170 C.ar    1  UNL1       -0.0614
     71 C          11.5510   23.6510  111.6400 C.ar    1  UNL1       -0.0617
     72 C          10.3540   23.4940  112.3360 C.ar    1  UNL1       -0.0614
     73 C          10.0500   24.3380  113.4070 C.ar    1  UNL1       -0.0551
     74 O          10.3670   24.7220  117.1820 O.2     1  UNL1       -0.2503
     75 O          13.1660   27.6780  117.7770 O.3     1  UNL1       -0.3619
     76 O          13.4250   25.4570  120.7280 O.3     1  UNL1       -0.3718
     77 O          14.1860   28.9780  120.0220 O.3     1  UNL1       -0.3887
     78 O          11.3860   27.0510  119.1830 O.3     1  UNL1       -0.3415
     79 O           6.5240   29.5940  116.5950 O.3     1  UNL1       -0.3732
     80 O           9.9290   30.7650  115.8070 O.3     1  UNL1       -0.3769
     81 O          11.6520   26.1460  115.9300 O.3     1  UNL1       -0.4563
@<TRIPOS>BOND
     1    23    71    1
     2    22    70    1
     3    71    70   ar
     4    71    72   ar
     5    70    69   ar
     6    24    72    1
     7    31    58    1
     8    72    73   ar
     9    12    59    1
    10    69    21    1
    11    69    68   ar
    12    11    58    1
    13    58    59    1
    14    58    57    1
    15    73    68   ar
    16    73    25    1
    17    59    32    1
    18    59    60    1
    19    10    57    1
    20    68    61    1
    21    30    57    1
    22    33    60    1
    23    57    56    1
    24    29    67    1
    25    60    61    1
    26    60    13    1
    27    61    14    1
    28    61    81    1
    29    67    20    1
    30    67    80    1
    31    67    39    1
    32    56    80    1
    33    56     9    1
    34    56    55    1
    35    81    45    1
    36     8    55    1
    37    38    66    1
    38    15    62    1
    39    55    79    1
    40    55    54    1
    41    79    66    1
    42    34    62    1
    43    19    66    1
    44    66    44    1
    45    45    74    2
    46    45    46    1
    47    62    46    1
    48    62    40    1
    49    75    26    1
    50    75    47    1
    51    46    47    1
    52    46     2    1
    53    54    28    1
    54    54    53    2
    55    27    53    1
    56    53    52    1
    57    47    78    1
    58    47    48    1
    59     6    51    1
    60    78    51    1
    61     3    48    1
    62    51    52    1
    63    51    50    1
    64    48    76    1
    65    48    49    1
    66    52     7    1
    67    52    65    1
    68    77     1    1
    69    77    49    1
    70    43    65    1
    71    16    63    1
    72    76    63    1
    73    49    50    1
    74    49     4    1
    75    65    37    1
    76    65    18    1
    77    50     5    1
    78    50    64    1
    79    63    41    1
    80    63    35    1
    81    42    64    1
    82    64    17    1
    83    64    36    1
