@<TRIPOS>MOLECULE
138.18843
 81 83 0 0 0
SMALL
GASTEIGER

@<TRIPOS>ATOM
      1 H          18.2440   26.3570  115.6630 H       1  UNL1        0.2099
      2 H          13.2060   26.3410  112.5250 H       1  UNL1        0.0465
      3 H          15.9760   27.9600  113.6750 H       1  UNL1        0.0676
      4 H          18.0530   26.4890  113.4600 H       1  UNL1        0.0624
      5 H          17.8960   24.2830  114.6580 H       1  UNL1        0.0349
      6 H          15.7700   24.5890  115.8100 H       1  UNL1        0.0606
      7 H          15.3720   22.3480  113.7670 H       1  UNL1        0.0365
      8 H          11.7530   22.0650  116.4160 H       1  UNL1        0.0666
      9 H          12.7970   21.5730  119.2320 H       1  UNL1        0.0625
     10 H          10.7720   22.3010  120.0330 H       1  UNL1        0.0291
     11 H          10.4590   24.4750  118.9090 H       1  UNL1        0.0266
     12 H           9.6670   22.7310  116.5330 H       1  UNL1        0.0267
     13 H          11.7350   24.3870  116.5690 H       1  UNL1        0.0304
     14 H          10.6630   23.5160  114.5220 H       1  UNL1        0.0785
     15 H          13.4790   28.8880  114.2080 H       1  UNL1        0.0239
     16 H          16.3520   28.6240  111.4990 H       1  UNL1        0.0524
     17 H          17.3740   22.9930  112.6920 H       1  UNL1        0.0234
     18 H          17.5570   22.0340  114.8720 H       1  UNL1        0.0236
     19 H          11.5080   18.5750  116.1490 H       1  UNL1        0.0524
     20 H          13.7130   24.9260  119.8390 H       1  UNL1        0.0524
     21 H           8.8990   26.6770  115.5160 H       1  UNL1        0.0621
     22 H           6.8400   27.4110  114.3970 H       1  UNL1        0.0618
     23 H           6.0640   26.2870  112.3260 H       1  UNL1        0.0618
     24 H           7.3800   24.4110  111.3720 H       1  UNL1        0.0618
     25 H           9.4460   23.6530  112.4840 H       1  UNL1        0.0621
     26 H          15.5520   26.8550  115.8310 H       1  UNL1        0.2129
     27 H          13.2970   22.8770  114.9110 H       1  UNL1        0.0573
     28 H          14.6460   21.2850  117.1650 H       1  UNL1        0.0595
     29 H          12.3850   23.9880  120.5470 H       1  UNL1        0.0524
     30 H          10.2690   21.4110  118.6190 H       1  UNL1        0.0291
     31 H           9.0240   23.4850  119.0160 H       1  UNL1        0.0266
     32 H           8.7110   24.1490  116.9010 H       1  UNL1        0.0267
     33 H          10.5630   25.6620  116.6810 H       1  UNL1        0.0304
     34 H          12.2880   28.6470  112.9250 H       1  UNL1        0.0239
     35 H          17.6810   27.4200  111.4840 H       1  UNL1        0.0524
     36 H          18.0320   24.5180  112.1170 H       1  UNL1        0.0234
     37 H          16.4110   20.8670  115.5060 H       1  UNL1        0.0236
     38 H          10.8270   20.1240  115.6160 H       1  UNL1        0.0524
     39 H          13.9970   23.2390  120.3100 H       1  UNL1        0.0524
     40 H          14.0020   28.6600  112.5300 H       1  UNL1        0.0239
     41 H          16.4380   27.3960  110.2220 H       1  UNL1        0.0524
     42 H          16.2850   24.2200  112.0520 H       1  UNL1        0.0234
     43 H          16.8350   22.3010  116.4640 H       1  UNL1        0.0236
     44 H          12.5280   19.6970  115.2300 H       1  UNL1        0.0524
     45 C          12.1150   26.4340  114.3390 C.2     1  UNL1        0.3158
     46 C          13.3290   26.8200  113.5050 C.3     1  UNL1        0.1098
     47 C          14.6350   26.3290  114.1810 C.3     1  UNL1        0.2096
     48 C          15.9080   26.8860  113.4560 C.3     1  UNL1        0.1386
     49 C          17.1650   26.1960  114.0300 C.3     1  UNL1        0.0913
     50 C          17.0550   24.6600  114.0620 C.3     1  UNL1        0.0117
     51 C          15.7410   24.2490  114.7660 C.3     1  UNL1        0.0730
     52 C          15.4780   22.7090  114.7990 C.3     1  UNL1        0.0011
     53 C          14.1340   22.4290  115.4490 C.2     1  UNL1       -0.0802
     54 C          13.8600   21.7440  116.5740 C.2     1  UNL1       -0.0568
     55 C          12.4550   21.6000  117.1100 C.3     1  UNL1        0.1025
     56 C          12.2890   22.2410  118.5210 C.3     1  UNL1        0.0879
     57 C          10.8000   22.3180  118.9340 C.3     1  UNL1       -0.0239
     58 C           9.9970   23.5640  118.5110 C.3     1  UNL1       -0.0505
     59 C           9.7130   23.7140  117.0120 C.3     1  UNL1       -0.0493
     60 C          10.7080   24.6450  116.3010 C.3     1  UNL1       -0.0114
     61 C          10.5970   24.5860  114.7620 C.3     1  UNL1        0.1280
     62 C          13.2780   28.3390  113.2830 C.3     1  UNL1       -0.0472
     63 C          16.6190   27.5860  111.2830 C.3     1  UNL1        0.0371
     64 C          17.1870   24.0710  112.6510 C.3     1  UNL1       -0.0576
     65 C          16.6330   21.9390  115.4500 C.3     1  UNL1       -0.0566
     66 C          11.7340   19.6310  115.9790 C.3     1  UNL1        0.0373
     67 C          13.2600   23.9320  119.8940 C.3     1  UNL1        0.0369
     68 C           9.3170   25.0800  114.1100 C.ar    1  UNL1       -0.0073
     69 C           8.5710   26.1490  114.6230 C.ar    1  UNL1       -0.0551
     70 C           7.4040   26.5780  113.9860 C.ar    1  UNL1       -0.0614
     71 C           6.9700   25.9490  112.8210 C.ar    1  UNL1       -0.0617
     72 C           7.7080   24.8960  112.2870 C.ar    1  UNL1       -0.0614
     73 C           8.8750   24.4690  112.9240 C.ar    1  UNL1       -0.0551
     74 O          11.5080   27.2050  115.0730 O.2     1  UNL1       -0.2503
     75 O          14.6220   26.7660  115.5430 O.3     1  UNL1       -0.3619
     76 O          15.8090   26.6920  112.0360 O.3     1  UNL1       -0.3718
     77 O          17.3690   26.6740  115.3720 O.3     1  UNL1       -0.3887
     78 O          14.6330   24.8920  114.1120 O.3     1  UNL1       -0.3415
     79 O          12.1480   20.1990  117.2160 O.3     1  UNL1       -0.3732
     80 O          12.8950   23.5380  118.5790 O.3     1  UNL1       -0.3769
     81 O          11.7540   25.1450  114.0940 O.3     1  UNL1       -0.4563
@<TRIPOS>BOND
     1    41    63    1
     2    63    35    1
     3    63    16    1
     4    63    76    1
     5    24    72    1
     6    76    48    1
     7    42    64    1
     8    36    64    1
     9    72    71   ar
    10    72    73   ar
    11    23    71    1
    12    25    73    1
    13     2    46    1
    14    40    62    1
    15    64    17    1
    16    64    50    1
    17    71    70   ar
    18    73    68   ar
    19    34    62    1
    20    62    46    1
    21    62    15    1
    22    48     3    1
    23    48    49    1
    24    48    47    1
    25     4    49    1
    26    46    47    1
    27    46    45    1
    28     7    52    1
    29    70    22    1
    30    70    69   ar
    31    49    50    1
    32    49    77    1
    33    50     5    1
    34    50    51    1
    35    81    45    1
    36    81    61    1
    37    68    69   ar
    38    68    61    1
    39    78    47    1
    40    78    51    1
    41    47    75    1
    42    45    74    2
    43    14    61    1
    44    69    21    1
    45    61    60    1
    46    51    52    1
    47    51     6    1
    48    52    53    1
    49    52    65    1
    50    18    65    1
    51    27    53    1
    52    44    66    1
    53    77     1    1
    54    53    54    2
    55    65    37    1
    56    65    43    1
    57    75    26    1
    58    38    66    1
    59    66    19    1
    60    66    79    1
    61    60    13    1
    62    60    33    1
    63    60    59    1
    64     8    55    1
    65    12    59    1
    66    54    55    1
    67    54    28    1
    68    32    59    1
    69    59    58    1
    70    55    79    1
    71    55    56    1
    72    58    11    1
    73    58    57    1
    74    58    31    1
    75    56    80    1
    76    56    57    1
    77    56     9    1
    78    80    67    1
    79    30    57    1
    80    57    10    1
    81    20    67    1
    82    67    39    1
    83    67    29    1
