@<TRIPOS>MOLECULE
139.66615
 81 83 0 0 0
SMALL
GASTEIGER

@<TRIPOS>ATOM
      1 H          18.4930   27.5690  114.3430 H       1  UNL1        0.2099
      2 H          13.1120   26.2300  112.5300 H       1  UNL1        0.0465
      3 H          15.9950   27.5320  112.0280 H       1  UNL1        0.0676
      4 H          17.8370   25.9940  112.9370 H       1  UNL1        0.0624
      5 H          17.7430   25.6250  115.4100 H       1  UNL1        0.0349
      6 H          15.9600   27.2140  115.9810 H       1  UNL1        0.0606
      7 H          14.8670   24.4420  116.6410 H       1  UNL1        0.0365
      8 H          13.1520   27.3270  119.9280 H       1  UNL1        0.0666
      9 H          11.2990   26.0870  118.5620 H       1  UNL1        0.0625
     10 H          11.0180   28.0890  116.9450 H       1  UNL1        0.0291
     11 H           8.4380   27.2430  118.3420 H       1  UNL1        0.0266
     12 H           7.9980   28.6610  116.4290 H       1  UNL1        0.0267
     13 H           8.5990   27.9550  114.1020 H       1  UNL1        0.0304
     14 H          10.7090   26.2170  115.5430 H       1  UNL1        0.0785
     15 H          13.3480   29.2840  112.2180 H       1  UNL1        0.0239
     16 H          15.8000   26.2480  110.1110 H       1  UNL1        0.0524
     17 H          16.6300   23.4720  115.2890 H       1  UNL1        0.0234
     18 H          17.2810   24.4420  117.2430 H       1  UNL1        0.0236
     19 H          13.8510   30.7390  119.5240 H       1  UNL1        0.0524
     20 H          10.2870   26.2960  121.9170 H       1  UNL1        0.0524
     21 H           8.5740   26.1970  112.3980 H       1  UNL1        0.0621
     22 H           7.2110   24.2490  111.7380 H       1  UNL1        0.0618
     23 H           7.1460   22.2260  113.1730 H       1  UNL1        0.0618
     24 H           8.4570   22.1590  115.2770 H       1  UNL1        0.0618
     25 H           9.8220   24.0950  115.9550 H       1  UNL1        0.0621
     26 H          15.9250   28.6020  114.2150 H       1  UNL1        0.2129
     27 H          14.1840   25.4220  118.8350 H       1  UNL1        0.0573
     28 H          13.6810   27.7850  116.9550 H       1  UNL1        0.0595
     29 H          10.4740   25.2080  120.5280 H       1  UNL1        0.0524
     30 H          10.1540   28.9110  118.2380 H       1  UNL1        0.0291
     31 H           9.3460   26.1010  117.3810 H       1  UNL1        0.0266
     32 H           7.5560   27.0080  116.0480 H       1  UNL1        0.0267
     33 H           9.8880   28.6420  115.0160 H       1  UNL1        0.0304
     34 H          12.2080   28.2440  111.3680 H       1  UNL1        0.0239
     35 H          17.1430   25.3470  110.8860 H       1  UNL1        0.0524
     36 H          17.3090   23.7850  113.6980 H       1  UNL1        0.0234
     37 H          16.3370   24.5680  118.7090 H       1  UNL1        0.0236
     38 H          14.0080   29.3460  120.6110 H       1  UNL1        0.0524
     39 H          11.8990   26.0450  121.2220 H       1  UNL1        0.0524
     40 H          13.9370   28.0820  111.0520 H       1  UNL1        0.0239
     41 H          15.7100   24.4860  110.2930 H       1  UNL1        0.0524
     42 H          15.5700   23.9900  113.9850 H       1  UNL1        0.0234
     43 H          17.1110   26.0140  118.0420 H       1  UNL1        0.0236
     44 H          14.8240   29.3480  119.0130 H       1  UNL1        0.0524
     45 C          12.1660   27.4740  113.9290 C.2     1  UNL1        0.3158
     46 C          13.2910   27.2280  112.9500 C.3     1  UNL1        0.1098
     47 C          14.6500   27.2030  113.6980 C.3     1  UNL1        0.2096
     48 C          15.7930   26.7190  112.7400 C.3     1  UNL1        0.1386
     49 C          17.0710   26.4630  113.5630 C.3     1  UNL1        0.0913
     50 C          16.8230   25.5960  114.8130 C.3     1  UNL1        0.0117
     51 C          15.6710   26.2060  115.6550 C.3     1  UNL1        0.0730
     52 C          15.3200   25.3950  116.9480 C.3     1  UNL1        0.0011
     53 C          14.3250   26.0130  117.9280 C.2     1  UNL1       -0.0802
     54 C          13.6220   27.1560  117.8420 C.2     1  UNL1       -0.0568
     55 C          12.7400   27.6670  118.9700 C.3     1  UNL1        0.1025
     56 C          11.2730   27.1450  118.8600 C.3     1  UNL1        0.0879
     57 C          10.4250   27.9260  117.8410 C.3     1  UNL1       -0.0239
     58 C           9.1330   27.1690  117.4950 C.3     1  UNL1       -0.0505
     59 C           8.4150   27.6650  116.2320 C.3     1  UNL1       -0.0493
     60 C           9.2630   27.7460  114.9500 C.3     1  UNL1       -0.0114
     61 C          10.1280   26.5000  114.6580 C.3     1  UNL1        0.1280
     62 C          13.1980   28.2680  111.8370 C.3     1  UNL1       -0.0472
     63 C          16.0580   25.4090  110.7640 C.3     1  UNL1        0.0371
     64 C          16.5630   24.1340  114.4200 C.3     1  UNL1       -0.0576
     65 C          16.5820   25.0910  117.7770 C.3     1  UNL1       -0.0566
     66 C          13.9280   29.6490  119.5620 C.3     1  UNL1        0.0373
     67 C          10.8360   26.1340  120.9850 C.3     1  UNL1        0.0369
     68 C           9.2880   25.3040  114.2370 C.ar    1  UNL1       -0.0073
     69 C           8.5480   25.3220  113.0430 C.ar    1  UNL1       -0.0551
     70 C           7.7790   24.2200  112.6640 C.ar    1  UNL1       -0.0614
     71 C           7.7430   23.0840  113.4690 C.ar    1  UNL1       -0.0617
     72 C           8.4790   23.0470  114.6510 C.ar    1  UNL1       -0.0614
     73 C           9.2490   24.1480  115.0320 C.ar    1  UNL1       -0.0551
     74 O          12.2030   28.2440  114.8760 O.2     1  UNL1       -0.2503
     75 O          14.9530   28.5280  114.1490 O.3     1  UNL1       -0.3619
     76 O          15.4070   25.5390  112.0200 O.3     1  UNL1       -0.3718
     77 O          17.6030   27.7330  113.9800 O.3     1  UNL1       -0.3887
     78 O          14.5100   26.3010  114.8170 O.3     1  UNL1       -0.3415
     79 O          12.7570   29.1010  118.9740 O.3     1  UNL1       -0.3732
     80 O          10.5880   27.2390  120.1280 O.3     1  UNL1       -0.3769
     81 O          11.0780   26.7170  113.5950 O.3     1  UNL1       -0.4563
@<TRIPOS>BOND
     1    16    63    1
     2    41    63    1
     3    63    35    1
     4    63    76    1
     5    40    62    1
     6    34    62    1
     7    22    70    1
     8    62    15    1
     9    62    46    1
    10    76    48    1
    11     3    48    1
    12    21    69    1
    13     2    46    1
    14    70    69   ar
    15    70    71   ar
    16    48    49    1
    17    48    47    1
    18     4    49    1
    19    46    47    1
    20    46    45    1
    21    69    68   ar
    22    23    71    1
    23    71    72   ar
    24    49    77    1
    25    49    50    1
    26    81    45    1
    27    81    61    1
    28    47    75    1
    29    47    78    1
    30    36    64    1
    31    45    74    2
    32    77     1    1
    33    42    64    1
    34    13    60    1
    35    75    26    1
    36    68    61    1
    37    68    73   ar
    38    64    50    1
    39    64    17    1
    40    72    73   ar
    41    72    24    1
    42    61    60    1
    43    61    14    1
    44    50     5    1
    45    50    51    1
    46    78    51    1
    47    60    33    1
    48    60    59    1
    49    73    25    1
    50    51     6    1
    51    51    52    1
    52    32    59    1
    53    59    12    1
    54    59    58    1
    55     7    52    1
    56    10    57    1
    57    52    65    1
    58    52    53    1
    59    28    54    1
    60    18    65    1
    61    31    58    1
    62    58    57    1
    63    58    11    1
    64    65    43    1
    65    65    37    1
    66    57    30    1
    67    57    56    1
    68    54    53    2
    69    54    55    1
    70    53    27    1
    71     9    56    1
    72    56    55    1
    73    56    80    1
    74    55    79    1
    75    55     8    1
    76    79    66    1
    77    44    66    1
    78    19    66    1
    79    66    38    1
    80    80    67    1
    81    29    67    1
    82    67    39    1
    83    67    20    1
