@<TRIPOS>MOLECULE
132.45291
 81 83 0 0 0
SMALL
GASTEIGER

@<TRIPOS>ATOM
      1 H          16.9540   32.0270  115.8940 H       1  UNL1        0.2099
      2 H          14.3970   26.9060  114.5470 H       1  UNL1        0.0465
      3 H          15.2010   30.0400  113.7340 H       1  UNL1        0.0676
      4 H          17.6230   30.5180  114.4050 H       1  UNL1        0.0624
      5 H          18.1120   30.2350  116.8370 H       1  UNL1        0.0349
      6 H          15.8260   29.9090  117.6570 H       1  UNL1        0.0606
      7 H          17.3040   27.2960  118.2050 H       1  UNL1        0.0365
      8 H          13.8920   27.1290  121.2730 H       1  UNL1        0.0666
      9 H          12.9810   28.8510  122.9960 H       1  UNL1        0.0625
     10 H          11.3860   29.7310  121.4650 H       1  UNL1        0.0291
     11 H          13.4600   29.3870  119.2620 H       1  UNL1        0.0266
     12 H          11.7490   29.9940  117.6790 H       1  UNL1        0.0267
     13 H          10.4600   27.6380  119.0990 H       1  UNL1        0.0304
     14 H          10.6140   26.5470  116.8750 H       1  UNL1        0.0785
     15 H          12.5380   29.2250  113.8000 H       1  UNL1        0.0239
     16 H          16.0200   29.1280  111.7810 H       1  UNL1        0.0524
     17 H          19.0410   28.0090  116.6520 H       1  UNL1        0.0234
     18 H          18.9330   29.0770  118.6350 H       1  UNL1        0.0236
     19 H          16.0850   26.1100  123.8220 H       1  UNL1        0.0524
     20 H          13.8740   32.2470  122.9950 H       1  UNL1        0.0524
     21 H          10.1860   29.9690  115.5430 H       1  UNL1        0.0621
     22 H           7.9780   30.9380  115.0340 H       1  UNL1        0.0618
     23 H           5.9070   29.8060  115.8000 H       1  UNL1        0.0618
     24 H           6.0570   27.6890  117.0840 H       1  UNL1        0.0618
     25 H           8.2570   26.7020  117.6020 H       1  UNL1        0.0621
     26 H          14.5250   30.7130  115.9910 H       1  UNL1        0.2129
     27 H          15.0930   27.1220  119.1120 H       1  UNL1        0.0573
     28 H          16.1500   29.2330  121.0850 H       1  UNL1        0.0595
     29 H          12.3300   31.5630  122.4640 H       1  UNL1        0.0524
     30 H          11.8230   28.1310  120.9180 H       1  UNL1        0.0291
     31 H          12.6450   30.8520  119.7680 H       1  UNL1        0.0266
     32 H          10.4950   29.9780  118.9130 H       1  UNL1        0.0267
     33 H          12.1310   27.4640  118.5770 H       1  UNL1        0.0304
     34 H          12.2880   27.5450  113.3090 H       1  UNL1        0.0239
     35 H          17.6450   29.4260  112.4770 H       1  UNL1        0.0524
     36 H          19.0470   28.6860  115.0300 H       1  UNL1        0.0234
     37 H          18.3280   28.5020  120.1740 H       1  UNL1        0.0236
     38 H          14.8620   25.5780  122.6540 H       1  UNL1        0.0524
     39 H          13.1440   30.9300  123.9330 H       1  UNL1        0.0524
     40 H          13.7210   28.4140  112.7630 H       1  UNL1        0.0239
     41 H          17.2120   27.8170  111.8760 H       1  UNL1        0.0524
     42 H          17.8220   27.4900  115.4980 H       1  UNL1        0.0234
     43 H          17.7350   30.0390  119.5060 H       1  UNL1        0.0236
     44 H          16.4270   26.2500  122.0890 H       1  UNL1        0.0524
     45 C          12.8310   27.2520  115.8830 C.2     1  UNL1        0.3158
     46 C          13.8090   27.7830  114.8530 C.3     1  UNL1        0.1098
     47 C          14.7520   28.8370  115.4850 C.3     1  UNL1        0.2096
     48 C          15.7620   29.3840  114.4150 C.3     1  UNL1        0.1386
     49 C          16.8440   30.2270  115.1160 C.3     1  UNL1        0.0913
     50 C          17.4840   29.5030  116.3140 C.3     1  UNL1        0.0117
     51 C          16.3720   29.0330  117.2840 C.3     1  UNL1        0.0730
     52 C          16.8980   28.2620  118.5360 C.3     1  UNL1        0.0011
     53 C          15.7560   27.9050  119.4830 C.2     1  UNL1       -0.0802
     54 C          15.5180   28.4380  120.6960 C.2     1  UNL1       -0.0568
     55 C          14.4330   28.0050  121.6520 C.3     1  UNL1        0.1025
     56 C          13.3880   29.1170  122.0090 C.3     1  UNL1        0.0879
     57 C          12.2050   29.1520  121.0220 C.3     1  UNL1       -0.0239
     58 C          12.5180   29.7690  119.6570 C.3     1  UNL1       -0.0505
     59 C          11.4340   29.5030  118.6060 C.3     1  UNL1       -0.0493
     60 C          11.1970   28.0010  118.3720 C.3     1  UNL1       -0.0114
     61 C          10.7380   27.6360  116.9490 C.3     1  UNL1        0.1280
     62 C          13.0480   28.2740  113.6140 C.3     1  UNL1       -0.0472
     63 C          16.8290   28.7060  112.3850 C.3     1  UNL1        0.0371
     64 C          18.3910   28.3570  115.8440 C.3     1  UNL1       -0.0576
     65 C          18.0320   29.0150  119.2520 C.3     1  UNL1       -0.0566
     66 C          15.6410   26.3210  122.8460 C.3     1  UNL1        0.0373
     67 C          13.2930   31.3240  122.9230 C.3     1  UNL1        0.0369
     68 C           9.3920   28.2550  116.6040 C.ar    1  UNL1       -0.0073
     69 C           9.2890   29.4540  115.8820 C.ar    1  UNL1       -0.0551
     70 C           8.0410   30.0090  115.5940 C.ar    1  UNL1       -0.0614
     71 C           6.8780   29.3740  116.0250 C.ar    1  UNL1       -0.0617
     72 C           6.9630   28.1850  116.7460 C.ar    1  UNL1       -0.0614
     73 C           8.2110   27.6300  117.0360 C.ar    1  UNL1       -0.0551
     74 O          13.0030   26.2140  116.5140 O.2     1  UNL1       -0.2503
     75 O          13.9560   29.9170  115.9860 O.3     1  UNL1       -0.3619
     76 O          16.3460   28.3090  113.6620 O.3     1  UNL1       -0.3718
     77 O          16.2350   31.4470  115.5770 O.3     1  UNL1       -0.3887
     78 O          15.4480   28.1940  116.5680 O.3     1  UNL1       -0.3415
     79 O          15.0840   27.6290  122.8870 O.3     1  UNL1       -0.3732
     80 O          14.0230   30.4030  122.1270 O.3     1  UNL1       -0.3769
     81 O          11.7270   28.0420  115.9860 O.3     1  UNL1       -0.4563
@<TRIPOS>BOND
     1    16    63    1
     2    41    63    1
     3    63    35    1
     4    63    76    1
     5    40    62    1
     6    34    62    1
     7    62    15    1
     8    62    46    1
     9    76    48    1
    10     3    48    1
    11     4    49    1
    12    48    49    1
    13    48    47    1
    14     2    46    1
    15    46    47    1
    16    46    45    1
    17    36    64    1
    18    22    70    1
    19    49    77    1
    20    49    50    1
    21    47    75    1
    22    47    78    1
    23    42    64    1
    24    21    69    1
    25    77     1    1
    26    70    69   ar
    27    70    71   ar
    28    23    71    1
    29    64    50    1
    30    64    17    1
    31    69    68   ar
    32    45    81    1
    33    45    74    2
    34    81    61    1
    35    75    26    1
    36    71    72   ar
    37    50     5    1
    38    50    51    1
    39    78    51    1
    40    68    61    1
    41    68    73   ar
    42    72    73   ar
    43    72    24    1
    44    14    61    1
    45    61    60    1
    46    73    25    1
    47    51     6    1
    48    51    52    1
    49    12    59    1
    50     7    52    1
    51    60    33    1
    52    60    59    1
    53    60    13    1
    54    52    65    1
    55    52    53    1
    56    59    32    1
    57    59    58    1
    58    18    65    1
    59    27    53    1
    60    65    43    1
    61    65    37    1
    62    11    58    1
    63    53    54    2
    64    58    31    1
    65    58    57    1
    66    54    28    1
    67    54    55    1
    68    30    57    1
    69    57    10    1
    70    57    56    1
    71     8    55    1
    72    55    56    1
    73    55    79    1
    74    56    80    1
    75    56     9    1
    76    44    66    1
    77    80    67    1
    78    29    67    1
    79    38    66    1
    80    66    79    1
    81    66    19    1
    82    67    20    1
    83    67    39    1
