@<TRIPOS>MOLECULE
158.65439
 81 83 0 0 0
SMALL
GASTEIGER

@<TRIPOS>ATOM
      1 H          16.9630   29.3530  116.9770 H       1  UNL1        0.2099
      2 H          11.8910   28.7450  114.1500 H       1  UNL1        0.0465
      3 H          13.7030   30.1340  116.3330 H       1  UNL1        0.0676
      4 H          16.0430   30.6920  115.4700 H       1  UNL1        0.0624
      5 H          17.4030   28.6400  114.7990 H       1  UNL1        0.0349
      6 H          15.8430   26.9880  115.5280 H       1  UNL1        0.0606
      7 H          17.3870   26.2390  113.8360 H       1  UNL1        0.0365
      8 H          16.2090   26.6640  109.3640 H       1  UNL1        0.0666
      9 H          15.7810   24.4830  107.9710 H       1  UNL1        0.0625
     10 H          13.9470   26.0200  108.2760 H       1  UNL1        0.0291
     11 H          13.9870   26.6000  110.5410 H       1  UNL1        0.0266
     12 H          11.5270   24.8270  110.4220 H       1  UNL1        0.0267
     13 H          11.8420   27.5170  111.7930 H       1  UNL1        0.0304
     14 H           9.7200   26.3740  112.0670 H       1  UNL1        0.0785
     15 H          11.3090   28.1510  117.1130 H       1  UNL1        0.0239
     16 H          12.8120   31.9960  115.2800 H       1  UNL1        0.0524
     17 H          17.1080   29.0090  112.4680 H       1  UNL1        0.0234
     18 H          15.7860   24.7670  115.1090 H       1  UNL1        0.0236
     19 H          19.6420   26.1020  108.7570 H       1  UNL1        0.0524
     20 H          15.2340   21.3600  109.4790 H       1  UNL1        0.0524
     21 H          12.4270   23.9750  113.0620 H       1  UNL1        0.0621
     22 H          11.9940   21.5840  113.3500 H       1  UNL1        0.0618
     23 H           9.6650   20.7270  113.4130 H       1  UNL1        0.0618
     24 H           7.7640   22.3070  113.2010 H       1  UNL1        0.0618
     25 H           8.1770   24.7210  112.9020 H       1  UNL1        0.0621
     26 H          14.5900   27.9650  117.0370 H       1  UNL1        0.2129
     27 H          15.7210   27.3450  111.7400 H       1  UNL1        0.0573
     28 H          17.0560   24.5990  111.5120 H       1  UNL1        0.0595
     29 H          13.8750   22.3550  108.9500 H       1  UNL1        0.0524
     30 H          13.3230   24.4070  108.5850 H       1  UNL1        0.0291
     31 H          13.8690   24.9140  111.0940 H       1  UNL1        0.0266
     32 H          11.6070   26.4570  109.7470 H       1  UNL1        0.0267
     33 H          12.7000   26.2060  112.5290 H       1  UNL1        0.0304
     34 H          10.1310   28.6790  115.9160 H       1  UNL1        0.0239
     35 H          14.5280   32.2410  114.8180 H       1  UNL1        0.0524
     36 H          16.6680   30.5210  113.2340 H       1  UNL1        0.0234
     37 H          16.2450   24.0650  113.5670 H       1  UNL1        0.0236
     38 H          18.3410   27.3080  108.7470 H       1  UNL1        0.0524
     39 H          15.3580   22.2420  107.9440 H       1  UNL1        0.0524
     40 H          11.4310   29.7700  116.3950 H       1  UNL1        0.0239
     41 H          13.2520   32.2900  113.5860 H       1  UNL1        0.0524
     42 H          15.3960   29.4450  112.6390 H       1  UNL1        0.0234
     43 H          14.6580   24.8310  113.7450 H       1  UNL1        0.0236
     44 H          18.9270   26.6140  110.2950 H       1  UNL1        0.0524
     45 C          11.5770   26.7560  114.7380 C.2     1  UNL1        0.3158
     46 C          12.0620   28.1610  115.0640 C.3     1  UNL1        0.1098
     47 C          13.5880   28.1930  115.3630 C.3     1  UNL1        0.2096
     48 C          14.1150   29.6710  115.4260 C.3     1  UNL1        0.1386
     49 C          15.6590   29.6690  115.5430 C.3     1  UNL1        0.0913
     50 C          16.3570   28.7730  114.4920 C.3     1  UNL1        0.0117
     51 C          15.6900   27.3770  114.5120 C.3     1  UNL1        0.0730
     52 C          16.3130   26.2620  113.6000 C.3     1  UNL1        0.0011
     53 C          16.2010   26.4390  112.0930 C.2     1  UNL1       -0.0802
     54 C          16.6010   25.5310  111.1800 C.2     1  UNL1       -0.0568
     55 C          16.4800   25.6450  109.6680 C.3     1  UNL1        0.1025
     56 C          15.4580   24.6430  109.0090 C.3     1  UNL1        0.0879
     57 C          14.0020   25.1730  108.9710 C.3     1  UNL1       -0.0239
     58 C          13.5260   25.6280  110.3370 C.3     1  UNL1       -0.0505
     59 C          12.0220   25.7980  110.5170 C.3     1  UNL1       -0.0493
     60 C          11.8270   26.4230  111.9030 C.3     1  UNL1       -0.0114
     61 C          10.5630   26.0240  112.6780 C.3     1  UNL1        0.1280
     62 C          11.1910   28.7230  116.1870 C.3     1  UNL1       -0.0472
     63 C          13.5710   31.8080  114.5150 C.3     1  UNL1        0.0371
     64 C          16.3720   29.4720  113.1320 C.3     1  UNL1       -0.0576
     65 C          15.7140   24.9060  114.0250 C.3     1  UNL1       -0.0566
     66 C          18.7110   26.4060  109.2430 C.3     1  UNL1        0.0373
     67 C          14.9660   22.2870  108.9640 C.3     1  UNL1        0.0369
     68 C          10.3360   24.5420  112.9250 C.ar    1  UNL1       -0.0073
     69 C          11.3950   23.6310  113.0670 C.ar    1  UNL1       -0.0551
     70 C          11.1560   22.2660  113.2390 C.ar    1  UNL1       -0.0614
     71 C           9.8500   21.7890  113.2780 C.ar    1  UNL1       -0.0617
     72 C           8.7840   22.6780  113.1600 C.ar    1  UNL1       -0.0614
     73 C           9.0240   24.0440  112.9900 C.ar    1  UNL1       -0.0551
     74 O          12.0650   25.7090  115.1310 O.2     1  UNL1       -0.2503
     75 O          13.7990   27.5590  116.6310 O.3     1  UNL1       -0.3619
     76 O          13.6930   30.4130  114.2710 O.3     1  UNL1       -0.3718
     77 O          16.0070   29.2000  116.8590 O.3     1  UNL1       -0.3887
     78 O          14.2760   27.4930  114.3040 O.3     1  UNL1       -0.3415
     79 O          17.7780   25.3430  109.1090 O.3     1  UNL1       -0.3732
     80 O          15.5330   23.3700  109.6850 O.3     1  UNL1       -0.3769
     81 O          10.5060   26.8360  113.8810 O.3     1  UNL1       -0.4563
@<TRIPOS>BOND
     1    39    67    1
     2     9    56    1
     3    10    57    1
     4    30    57    1
     5    38    66    1
     6    19    66    1
     7    29    67    1
     8    67    20    1
     9    67    80    1
    10    57    56    1
    11    57    58    1
    12    56    55    1
    13    56    80    1
    14    79    66    1
    15    79    55    1
    16    66    44    1
    17     8    55    1
    18    55    54    1
    19    32    59    1
    20    58    59    1
    21    58    11    1
    22    58    31    1
    23    12    59    1
    24    59    60    1
    25    54    28    1
    26    54    53    2
    27    27    53    1
    28    13    60    1
    29    60    33    1
    30    60    61    1
    31    14    61    1
    32    53    52    1
    33    17    64    1
    34    42    64    1
    35    61    68    1
    36    61    81    1
    37    25    73    1
    38    68    73   ar
    39    68    69   ar
    40    73    72   ar
    41    21    69    1
    42    69    70   ar
    43    64    36    1
    44    64    50    1
    45    72    24    1
    46    72    71   ar
    47    70    71   ar
    48    70    22    1
    49    71    23    1
    50    37    65    1
    51    41    63    1
    52    52     7    1
    53    52    65    1
    54    52    51    1
    55    43    65    1
    56    81    45    1
    57    65    18    1
    58     2    46    1
    59    76    63    1
    60    76    48    1
    61    78    51    1
    62    78    47    1
    63    50    51    1
    64    50     5    1
    65    50    49    1
    66    51     6    1
    67    63    35    1
    68    63    16    1
    69    45    46    1
    70    45    74    2
    71    46    47    1
    72    46    62    1
    73    47    48    1
    74    47    75    1
    75    48    49    1
    76    48     3    1
    77     4    49    1
    78    49    77    1
    79    34    62    1
    80    62    40    1
    81    62    15    1
    82    75    26    1
    83    77     1    1
