@<TRIPOS>MOLECULE
142.48882
 81 83 0 0 0
SMALL
GASTEIGER

@<TRIPOS>ATOM
      1 H          13.7850   24.5070  110.0940 H       1  UNL1        0.2099
      2 H          13.2990   28.7340  114.2720 H       1  UNL1        0.0465
      3 H          15.2780   26.5890  112.3590 H       1  UNL1        0.0676
      4 H          14.5510   26.5710  109.9210 H       1  UNL1        0.0624
      5 H          12.1180   26.0510  109.5530 H       1  UNL1        0.0349
      6 H          11.4390   25.4910  111.8160 H       1  UNL1        0.0606
      7 H          10.0180   28.0930  111.0520 H       1  UNL1        0.0365
      8 H           7.9280   26.8600  114.7710 H       1  UNL1        0.0666
      9 H           6.6350   24.1320  114.3760 H       1  UNL1        0.0625
     10 H           7.4210   23.7750  116.7020 H       1  UNL1        0.0291
     11 H           8.0450   25.5770  118.1470 H       1  UNL1        0.0266
     12 H          10.0020   25.6060  115.7770 H       1  UNL1        0.0267
     13 H          11.5730   25.8600  117.8550 H       1  UNL1        0.0304
     14 H           9.9110   28.1710  116.7710 H       1  UNL1        0.0785
     15 H          15.4840   26.6830  114.8960 H       1  UNL1        0.0239
     16 H          16.6400   28.3520  111.7670 H       1  UNL1        0.0524
     17 H          11.4560   28.3320  109.2160 H       1  UNL1        0.0234
     18 H           9.9310   26.5040  109.1500 H       1  UNL1        0.0236
     19 H           4.7810   28.1280  113.8490 H       1  UNL1        0.0524
     20 H           9.5360   22.4270  113.5690 H       1  UNL1        0.0524
     21 H          12.8440   27.4360  118.9960 H       1  UNL1        0.0621
     22 H          13.8810   29.1700  120.3920 H       1  UNL1        0.0618
     23 H          13.2470   31.5530  120.1150 H       1  UNL1        0.0618
     24 H          11.5580   32.1920  118.4140 H       1  UNL1        0.0618
     25 H          10.5020   30.4660  117.0020 H       1  UNL1        0.0621
     26 H          13.4760   24.9420  112.7570 H       1  UNL1        0.2129
     27 H           9.6030   27.4500  113.3820 H       1  UNL1        0.0573
     28 H           7.5900   25.6000  111.9780 H       1  UNL1        0.0595
     29 H           7.9360   22.1440  114.2880 H       1  UNL1        0.0524
     30 H           6.2710   25.0980  116.5250 H       1  UNL1        0.0291
     31 H           8.0010   26.7650  116.8730 H       1  UNL1        0.0266
     32 H           9.9700   24.4350  117.0950 H       1  UNL1        0.0267
     33 H          10.1830   26.5440  118.6600 H       1  UNL1        0.0304
     34 H          15.2260   28.1810  115.7990 H       1  UNL1        0.0239
     35 H          15.8380   28.3490  110.1640 H       1  UNL1        0.0524
     36 H          13.2040   28.3140  109.0420 H       1  UNL1        0.0234
     37 H           8.3560   26.6040  109.9130 H       1  UNL1        0.0236
     38 H           6.2460   28.4260  114.8050 H       1  UNL1        0.0524
     39 H           8.0940   23.0870  112.7690 H       1  UNL1        0.0524
     40 H          15.6880   28.2600  114.1090 H       1  UNL1        0.0239
     41 H          15.9150   29.8370  111.1200 H       1  UNL1        0.0524
     42 H          12.4620   28.9320  110.5310 H       1  UNL1        0.0234
     43 H           9.4020   25.2030  110.2230 H       1  UNL1        0.0236
     44 H           6.3320   28.3300  113.0140 H       1  UNL1        0.0524
     45 C          12.8310   27.1900  115.6550 C.2     1  UNL1        0.3158
     46 C          13.5930   27.6880  114.4320 C.3     1  UNL1        0.1098
     47 C          13.2760   26.8480  113.1670 C.3     1  UNL1        0.2096
     48 C          14.3410   27.0630  112.0340 C.3     1  UNL1        0.1386
     49 C          13.8660   26.3570  110.7480 C.3     1  UNL1        0.0913
     50 C          12.4330   26.7430  110.3450 C.3     1  UNL1        0.0117
     51 C          11.4800   26.5560  111.5520 C.3     1  UNL1        0.0730
     52 C          10.0110   27.0190  111.2760 C.3     1  UNL1        0.0011
     53 C           9.1850   26.8930  112.5400 C.2     1  UNL1       -0.0802
     54 C           8.0600   26.1890  112.7570 C.2     1  UNL1       -0.0568
     55 C           7.4190   26.1420  114.1220 C.3     1  UNL1        0.1025
     56 C           7.4740   24.7260  114.7650 C.3     1  UNL1        0.0879
     57 C           7.3000   24.7890  116.2990 C.3     1  UNL1       -0.0239
     58 C           8.2520   25.7190  117.0780 C.3     1  UNL1       -0.0505
     59 C           9.7450   25.4760  116.8310 C.3     1  UNL1       -0.0493
     60 C          10.6380   26.3960  117.6720 C.3     1  UNL1       -0.0114
     61 C          10.9050   27.7700  117.0100 C.3     1  UNL1        0.1280
     62 C          15.0810   27.6990  114.8250 C.3     1  UNL1       -0.0472
     63 C          15.8080   28.7510  111.1790 C.3     1  UNL1        0.0371
     64 C          12.3900   28.1610  109.7590 C.3     1  UNL1       -0.0576
     65 C           9.3930   26.2890  110.0770 C.3     1  UNL1       -0.0566
     66 C           5.8540   27.9280  113.9120 C.3     1  UNL1        0.0373
     67 C           8.5490   22.8660  113.7390 C.3     1  UNL1        0.0369
     68 C          11.5620   28.8100  117.9100 C.ar    1  UNL1       -0.0073
     69 C          12.5290   28.4700  118.8680 C.ar    1  UNL1       -0.0551
     70 C          13.1300   29.4520  119.6590 C.ar    1  UNL1       -0.0614
     71 C          12.7760   30.7900  119.5010 C.ar    1  UNL1       -0.0617
     72 C          11.8280   31.1470  118.5460 C.ar    1  UNL1       -0.0614
     73 C          11.2300   30.1660  117.7530 C.ar    1  UNL1       -0.0551
     74 O          13.3360   26.4870  116.5250 O.2     1  UNL1       -0.2503
     75 O          13.2370   25.4700  113.5440 O.3     1  UNL1       -0.3619
     76 O          14.5640   28.4650  111.8070 O.3     1  UNL1       -0.3718
     77 O          13.9230   24.9350  110.9600 O.3     1  UNL1       -0.3887
     78 O          11.9870   27.2780  112.6910 O.3     1  UNL1       -0.3415
     79 O           6.0370   26.5210  114.0050 O.3     1  UNL1       -0.3732
     80 O           8.7130   24.0530  114.4990 O.3     1  UNL1       -0.3769
     81 O          11.5900   27.7450  115.7320 O.3     1  UNL1       -0.4563
@<TRIPOS>BOND
     1    36    64    1
     2    18    65    1
     3    17    64    1
     4     5    50    1
     5    64    50    1
     6    64    42    1
     7    37    65    1
     8     4    49    1
     9    65    43    1
    10    65    52    1
    11     1    77    1
    12    35    63    1
    13    50    49    1
    14    50    51    1
    15    49    77    1
    16    49    48    1
    17     7    52    1
    18    41    63    1
    19    63    16    1
    20    63    76    1
    21    52    51    1
    22    52    53    1
    23    51     6    1
    24    51    78    1
    25    76    48    1
    26    28    54    1
    27    48     3    1
    28    48    47    1
    29    53    54    2
    30    53    27    1
    31    78    47    1
    32    26    75    1
    33    54    55    1
    34    39    67    1
    35    44    66    1
    36    47    75    1
    37    47    46    1
    38    20    67    1
    39    67    29    1
    40    67    80    1
    41    19    66    1
    42    66    79    1
    43    66    38    1
    44    79    55    1
    45    40    62    1
    46    55    56    1
    47    55     8    1
    48     2    46    1
    49     9    56    1
    50    46    62    1
    51    46    45    1
    52    80    56    1
    53    56    57    1
    54    62    15    1
    55    62    34    1
    56    45    81    1
    57    45    74    2
    58    81    61    1
    59    12    59    1
    60    57    30    1
    61    57    10    1
    62    57    58    1
    63    14    61    1
    64    59    58    1
    65    59    32    1
    66    59    60    1
    67    31    58    1
    68    25    73    1
    69    61    60    1
    70    61    68    1
    71    58    11    1
    72    60    13    1
    73    60    33    1
    74    73    68   ar
    75    73    72   ar
    76    68    69   ar
    77    24    72    1
    78    72    71   ar
    79    69    21    1
    80    69    70   ar
    81    71    70   ar
    82    71    23    1
    83    70    22    1
