@<TRIPOS>MOLECULE
128.02102
 81 83 0 0 0
SMALL
GASTEIGER

@<TRIPOS>ATOM
      1 H          17.0070   31.8640  115.0950 H       1  UNL1        0.2099
      2 H          12.2450   28.6440  113.8370 H       1  UNL1        0.0465
      3 H          13.7620   31.5680  114.0710 H       1  UNL1        0.0676
      4 H          16.1320   31.4540  113.1010 H       1  UNL1        0.0624
      5 H          17.6380   29.7870  114.2490 H       1  UNL1        0.0349
      6 H          16.1790   29.0850  116.0680 H       1  UNL1        0.0606
      7 H          16.5660   26.6720  114.2300 H       1  UNL1        0.0365
      8 H          14.7200   24.7690  117.9510 H       1  UNL1        0.0666
      9 H          15.3580   24.7240  120.4580 H       1  UNL1        0.0625
     10 H          14.2910   26.8130  120.9970 H       1  UNL1        0.0291
     11 H          14.2540   27.5350  118.0370 H       1  UNL1        0.0266
     12 H          13.4200   29.6890  118.8440 H       1  UNL1        0.0267
     13 H          11.2340   29.1980  119.6700 H       1  UNL1        0.0304
     14 H          11.9940   26.7830  117.9530 H       1  UNL1        0.0785
     15 H          11.4750   30.9110  115.7510 H       1  UNL1        0.0239
     16 H          12.9470   31.8930  111.9300 H       1  UNL1        0.0524
     17 H          17.4070   28.0860  112.5600 H       1  UNL1        0.0234
     18 H          18.7310   27.7850  114.5620 H       1  UNL1        0.0236
     19 H          16.7700   21.9490  117.5370 H       1  UNL1        0.0524
     20 H          18.5400   25.9820  121.1630 H       1  UNL1        0.0524
     21 H           9.2850   29.4560  118.1490 H       1  UNL1        0.0621
     22 H           6.8770   28.9100  118.1760 H       1  UNL1        0.0618
     23 H           6.1340   26.5430  118.1310 H       1  UNL1        0.0618
     24 H           7.8130   24.7190  118.0540 H       1  UNL1        0.0618
     25 H          10.2220   25.2460  118.0280 H       1  UNL1        0.0621
     26 H          14.7310   30.8320  116.1990 H       1  UNL1        0.2129
     27 H          14.9940   26.0520  115.9330 H       1  UNL1        0.0573
     28 H          17.4910   26.1530  117.7140 H       1  UNL1        0.0595
     29 H          17.4390   24.6020  121.3240 H       1  UNL1        0.0524
     30 H          13.4310   25.9520  119.7230 H       1  UNL1        0.0291
     31 H          15.3640   28.2670  119.1850 H       1  UNL1        0.0266
     32 H          13.5240   29.1620  120.5080 H       1  UNL1        0.0267
     33 H          11.6830   27.6050  120.2490 H       1  UNL1        0.0304
     34 H          10.3280   29.8980  114.8690 H       1  UNL1        0.0239
     35 H          14.6620   31.7170  111.4380 H       1  UNL1        0.0524
     36 H          16.8710   29.5880  111.8210 H       1  UNL1        0.0234
     37 H          18.6860   26.3210  115.5300 H       1  UNL1        0.0236
     38 H          15.1500   22.6270  117.2810 H       1  UNL1        0.0524
     39 H          18.2460   24.9540  119.7580 H       1  UNL1        0.0524
     40 H          11.4420   30.9410  113.9810 H       1  UNL1        0.0239
     41 H          13.4040   30.7420  110.6600 H       1  UNL1        0.0524
     42 H          15.6820   28.3840  112.3520 H       1  UNL1        0.0234
     43 H          18.4580   27.9020  116.3050 H       1  UNL1        0.0236
     44 H          16.5690   23.3070  116.4160 H       1  UNL1        0.0524
     45 C          12.0400   28.0890  115.8400 C.2     1  UNL1        0.3158
     46 C          12.3690   29.1490  114.8040 C.3     1  UNL1        0.1098
     47 C          13.8400   29.5960  114.9670 C.3     1  UNL1        0.2096
     48 C          14.2650   30.6150  113.8590 C.3     1  UNL1        0.1386
     49 C          15.7930   30.8390  113.9420 C.3     1  UNL1        0.0913
     50 C          16.6050   29.5280  113.9840 C.3     1  UNL1        0.0117
     51 C          16.0420   28.6020  115.0910 C.3     1  UNL1        0.0730
     52 C          16.7180   27.1990  115.1810 C.3     1  UNL1        0.0011
     53 C          16.0110   26.3320  116.2160 C.2     1  UNL1       -0.0802
     54 C          16.4890   25.8900  117.3920 C.2     1  UNL1       -0.0568
     55 C          15.7220   24.9950  118.3390 C.3     1  UNL1        0.1025
     56 C          15.5530   25.5690  119.7830 C.3     1  UNL1        0.0879
     57 C          14.3460   26.5150  119.9420 C.3     1  UNL1       -0.0239
     58 C          14.3840   27.7860  119.0920 C.3     1  UNL1       -0.0505
     59 C          13.3150   28.8100  119.4900 C.3     1  UNL1       -0.0493
     60 C          11.8590   28.3250  119.4400 C.3     1  UNL1       -0.0114
     61 C          11.4220   27.7080  118.0980 C.3     1  UNL1        0.1280
     62 C          11.3510   30.2910  114.8570 C.3     1  UNL1       -0.0472
     63 C          13.7200   31.1900  111.6060 C.3     1  UNL1        0.0371
     64 C          16.6340   28.8600  112.6040 C.3     1  UNL1       -0.0576
     65 C          18.2310   27.3100  115.4110 C.3     1  UNL1       -0.0566
     66 C          16.2140   22.8730  117.3550 C.3     1  UNL1        0.0373
     67 C          17.7800   25.3890  120.6450 C.3     1  UNL1        0.0369
     68 C           9.9360   27.3910  118.1050 C.ar    1  UNL1       -0.0073
     69 C           8.9730   28.4140  118.1380 C.ar    1  UNL1       -0.0551
     70 C           7.6110   28.1090  118.1500 C.ar    1  UNL1       -0.0614
     71 C           7.1940   26.7800  118.1250 C.ar    1  UNL1       -0.0617
     72 C           8.1370   25.7560  118.0840 C.ar    1  UNL1       -0.0614
     73 C           9.5000   26.0580  118.0730 C.ar    1  UNL1       -0.0551
     74 O          12.0800   26.8830  115.6120 O.2     1  UNL1       -0.2503
     75 O          13.9880   30.1980  116.2570 O.3     1  UNL1       -0.3619
     76 O          13.8770   30.1480  112.5590 O.3     1  UNL1       -0.3718
     77 O          16.0710   31.5920  115.1370 O.3     1  UNL1       -0.3887
     78 O          14.6400   28.4100  114.8700 O.3     1  UNL1       -0.3415
     79 O          16.4500   23.7530  118.4490 O.3     1  UNL1       -0.3732
     80 O          16.7130   26.2590  120.2910 O.3     1  UNL1       -0.3769
     81 O          11.6980   28.6380  117.0390 O.3     1  UNL1       -0.4563
@<TRIPOS>BOND
     1    41    63    1
     2    35    63    1
     3    63    16    1
     4    63    76    1
     5    36    64    1
     6    42    64    1
     7    76    48    1
     8    17    64    1
     9    64    50    1
    10     4    49    1
    11     2    46    1
    12    48    49    1
    13    48     3    1
    14    48    47    1
    15    49    50    1
    16    49    77    1
    17    40    62    1
    18    50     5    1
    19    50    51    1
    20     7    52    1
    21    18    65    1
    22    46    62    1
    23    46    47    1
    24    46    45    1
    25    62    34    1
    26    62    15    1
    27    78    47    1
    28    78    51    1
    29    47    75    1
    30    51    52    1
    31    51     6    1
    32     1    77    1
    33    52    65    1
    34    52    53    1
    35    65    37    1
    36    65    43    1
    37    74    45    2
    38    45    81    1
    39    27    53    1
    40    26    75    1
    41    53    54    2
    42    44    66    1
    43    81    61    1
    44    38    66    1
    45    66    19    1
    46    66    79    1
    47    54    28    1
    48    54    55    1
    49     8    55    1
    50    14    61    1
    51    25    73    1
    52    11    58    1
    53    24    72    1
    54    73    72   ar
    55    73    68   ar
    56    72    71   ar
    57    61    68    1
    58    61    60    1
    59    68    69   ar
    60    71    23    1
    61    71    70   ar
    62    69    21    1
    63    69    70   ar
    64    70    22    1
    65    55    79    1
    66    55    56    1
    67    12    59    1
    68    58    31    1
    69    58    59    1
    70    58    57    1
    71    60    59    1
    72    60    13    1
    73    60    33    1
    74    59    32    1
    75    30    57    1
    76    39    67    1
    77    56    57    1
    78    56    80    1
    79    56     9    1
    80    57    10    1
    81    80    67    1
    82    67    20    1
    83    67    29    1
