@<TRIPOS>MOLECULE
130.84188
 81 83 0 0 0
SMALL
GASTEIGER

@<TRIPOS>ATOM
      1 H          19.0120   28.0330  116.0210 H       1  UNL1        0.2099
      2 H          13.8100   27.3600  113.3980 H       1  UNL1        0.0465
      3 H          16.3830   29.2530  114.2190 H       1  UNL1        0.0676
      4 H          18.5480   27.9200  113.8530 H       1  UNL1        0.0624
      5 H          18.7400   25.8440  115.2220 H       1  UNL1        0.0349
      6 H          16.7900   26.1940  116.6770 H       1  UNL1        0.0606
      7 H          16.1300   23.6730  115.1020 H       1  UNL1        0.0365
      8 H          14.7470   21.8650  119.4560 H       1  UNL1        0.0666
      9 H          12.8980   23.2710  118.2370 H       1  UNL1        0.0625
     10 H          13.6260   25.5120  118.9100 H       1  UNL1        0.0291
     11 H          11.0720   24.8500  120.4770 H       1  UNL1        0.0266
     12 H          11.7650   27.1860  120.6860 H       1  UNL1        0.0267
     13 H          13.0680   27.5990  118.6560 H       1  UNL1        0.0304
     14 H          11.6010   26.1890  117.0890 H       1  UNL1        0.0785
     15 H          13.6690   29.8960  115.1140 H       1  UNL1        0.0239
     16 H          16.3660   29.7710  111.9690 H       1  UNL1        0.0524
     17 H          17.9580   24.3160  113.4980 H       1  UNL1        0.0234
     18 H          18.5750   23.5780  115.4780 H       1  UNL1        0.0236
     19 H          15.6100   23.1250  122.5900 H       1  UNL1        0.0524
     20 H          11.3280   20.9080  120.2730 H       1  UNL1        0.0524
     21 H          10.4950   29.8340  116.9880 H       1  UNL1        0.0621
     22 H           8.1680   30.5060  116.5050 H       1  UNL1        0.0618
     23 H           6.4290   28.7820  116.1050 H       1  UNL1        0.0618
     24 H           7.0280   26.3760  116.1870 H       1  UNL1        0.0618
     25 H           9.3460   25.6880  116.6710 H       1  UNL1        0.0621
     26 H          16.2600   28.3760  116.4850 H       1  UNL1        0.2129
     27 H          14.4720   24.2380  116.8270 H       1  UNL1        0.0573
     28 H          16.7010   22.9870  118.5270 H       1  UNL1        0.0595
     29 H          11.2920   21.6820  118.6770 H       1  UNL1        0.0524
     30 H          13.4500   25.1260  120.6200 H       1  UNL1        0.0291
     31 H          11.0710   24.9300  118.7310 H       1  UNL1        0.0266
     32 H          10.2750   27.0300  119.7720 H       1  UNL1        0.0267
     33 H          11.7630   28.7300  118.7920 H       1  UNL1        0.0304
     34 H          12.4950   29.4460  113.8740 H       1  UNL1        0.0239
     35 H          17.8530   28.7710  111.9160 H       1  UNL1        0.0524
     36 H          18.4310   25.8040  112.6890 H       1  UNL1        0.0234
     37 H          17.7760   22.4600  116.5550 H       1  UNL1        0.0236
     38 H          13.9290   23.1300  122.0540 H       1  UNL1        0.0524
     39 H          12.7590   20.8100  119.2270 H       1  UNL1        0.0524
     40 H          14.1690   29.7740  113.4210 H       1  UNL1        0.0239
     41 H          16.5200   28.4530  110.7920 H       1  UNL1        0.0524
     42 H          16.7160   25.4280  112.9480 H       1  UNL1        0.0234
     43 H          18.3670   24.0200  117.1740 H       1  UNL1        0.0236
     44 H          14.9930   21.7290  121.6890 H       1  UNL1        0.0524
     45 C          12.8000   27.1520  115.2040 C.2     1  UNL1        0.3158
     46 C          13.8700   27.8400  114.3850 C.3     1  UNL1        0.1098
     47 C          15.2630   27.5710  115.0070 C.3     1  UNL1        0.2096
     48 C          16.3950   28.1620  114.0930 C.3     1  UNL1        0.1386
     49 C          17.7640   27.6300  114.5610 C.3     1  UNL1        0.0913
     50 C          17.7830   26.1010  114.7500 C.3     1  UNL1        0.0117
     51 C          16.6400   25.6970  115.7100 C.3     1  UNL1        0.0730
     52 C          16.5230   24.1660  116.0020 C.3     1  UNL1        0.0011
     53 C          15.4750   23.9050  117.0940 C.2     1  UNL1       -0.0802
     54 C          15.6900   23.3080  118.2820 C.2     1  UNL1       -0.0568
     55 C          14.7290   22.9610  119.3990 C.3     1  UNL1        0.1025
     56 C          13.2450   23.4250  119.2660 C.3     1  UNL1        0.0879
     57 C          13.0530   24.9120  119.6210 C.3     1  UNL1       -0.0239
     58 C          11.5730   25.3220  119.6220 C.3     1  UNL1       -0.0505
     59 C          11.3540   26.8360  119.7310 C.3     1  UNL1       -0.0493
     60 C          11.9740   27.6700  118.6030 C.3     1  UNL1       -0.0114
     61 C          11.5120   27.2750  117.1890 C.3     1  UNL1        0.1280
     62 C          13.5360   29.3220  114.1910 C.3     1  UNL1       -0.0472
     63 C          16.7650   28.7650  111.8100 C.3     1  UNL1        0.0371
     64 C          17.7120   25.3770  113.3970 C.3     1  UNL1       -0.0576
     65 C          17.8840   23.5260  116.3230 C.3     1  UNL1       -0.0566
     66 C          14.9400   22.8170  121.7830 C.3     1  UNL1        0.0373
     67 C          11.9280   21.4490  119.5360 C.3     1  UNL1        0.0369
     68 C          10.0920   27.7100  116.8850 C.ar    1  UNL1       -0.0073
     69 C           9.7410   29.0670  116.8250 C.ar    1  UNL1       -0.0551
     70 C           8.4270   29.4510  116.5480 C.ar    1  UNL1       -0.0614
     71 C           7.4510   28.4840  116.3230 C.ar    1  UNL1       -0.0617
     72 C           7.7870   27.1320  116.3710 C.ar    1  UNL1       -0.0614
     73 C           9.0990   26.7470  116.6480 C.ar    1  UNL1       -0.0551
     74 O          12.3570   26.0380  114.9380 O.2     1  UNL1       -0.2503
     75 O          15.3180   28.1900  116.2970 O.3     1  UNL1       -0.3619
     76 O          16.1660   27.8430  112.7120 O.3     1  UNL1       -0.3718
     77 O          18.0870   28.2610  115.8120 O.3     1  UNL1       -0.3887
     78 O          15.3960   26.1470  115.1500 O.3     1  UNL1       -0.3415
     79 O          15.3690   23.4600  120.5900 O.3     1  UNL1       -0.3732
     80 O          12.3980   22.6480  120.1410 O.3     1  UNL1       -0.3769
     81 O          12.4060   27.9140  116.2610 O.3     1  UNL1       -0.4563
@<TRIPOS>BOND
     1    41    63    1
     2    63    35    1
     3    63    16    1
     4    63    76    1
     5    36    64    1
     6    76    48    1
     7    42    64    1
     8    64    17    1
     9    64    50    1
    10     2    46    1
    11    40    62    1
    12     4    49    1
    13    34    62    1
    14    48     3    1
    15    48    49    1
    16    48    47    1
    17    62    46    1
    18    62    15    1
    19    46    47    1
    20    46    45    1
    21    49    50    1
    22    49    77    1
    23    50     5    1
    24    50    51    1
    25    74    45    2
    26    47    78    1
    27    47    75    1
    28     7    52    1
    29    78    51    1
    30    45    81    1
    31    18    65    1
    32    51    52    1
    33    51     6    1
    34    77     1    1
    35    52    65    1
    36    52    53    1
    37    23    71    1
    38    24    72    1
    39    81    61    1
    40    75    26    1
    41    71    72   ar
    42    71    70   ar
    43    65    37    1
    44    65    43    1
    45    72    73   ar
    46    22    70    1
    47    70    69   ar
    48    73    25    1
    49    73    68   ar
    50    69    68   ar
    51    69    21    1
    52    27    53    1
    53    68    61    1
    54    14    61    1
    55    53    54    2
    56    61    60    1
    57     9    56    1
    58    54    28    1
    59    54    55    1
    60    60    13    1
    61    60    33    1
    62    60    59    1
    63    29    67    1
    64    31    58    1
    65    10    57    1
    66    39    67    1
    67    56    55    1
    68    56    57    1
    69    56    80    1
    70    55     8    1
    71    55    79    1
    72    67    80    1
    73    67    20    1
    74    57    58    1
    75    57    30    1
    76    58    59    1
    77    58    11    1
    78    59    32    1
    79    59    12    1
    80    79    66    1
    81    44    66    1
    82    66    38    1
    83    66    19    1
