@<TRIPOS>MOLECULE
131.78682
 81 83 0 0 0
SMALL
GASTEIGER

@<TRIPOS>ATOM
      1 H          18.6880   25.0570  115.0930 H       1  UNL1        0.2099
      2 H          14.2610   28.4380  113.1850 H       1  UNL1        0.0465
      3 H          16.7910   27.8820  115.2750 H       1  UNL1        0.0676
      4 H          18.8170   26.9710  114.0050 H       1  UNL1        0.0624
      5 H          18.3920   24.8190  112.7760 H       1  UNL1        0.0349
      6 H          16.1390   24.3240  113.5620 H       1  UNL1        0.0606
      7 H          15.9050   24.9120  110.5720 H       1  UNL1        0.0365
      8 H          11.9560   22.9060  111.3470 H       1  UNL1        0.0666
      9 H          11.0210   21.1590  112.5600 H       1  UNL1        0.0625
     10 H          13.5110   22.0330  114.0970 H       1  UNL1        0.0291
     11 H          10.5870   22.9520  114.1510 H       1  UNL1        0.0266
     12 H          13.0060   24.0890  115.6430 H       1  UNL1        0.0267
     13 H          11.3020   25.1690  117.0420 H       1  UNL1        0.0304
     14 H          10.7450   25.7570  114.0860 H       1  UNL1        0.0785
     15 H          14.1450   28.1830  116.2360 H       1  UNL1        0.0239
     16 H          17.4590   30.0200  114.6920 H       1  UNL1        0.0524
     17 H          18.0980   25.8450  110.6130 H       1  UNL1        0.0234
     18 H          17.9280   23.5310  110.9670 H       1  UNL1        0.0236
     19 H          11.9400   21.3450  108.2060 H       1  UNL1        0.0524
     20 H          13.9400   18.4230  112.9330 H       1  UNL1        0.0524
     21 H          11.1590   27.6480  117.3650 H       1  UNL1        0.0621
     22 H           9.5470   29.3560  118.1250 H       1  UNL1        0.0618
     23 H           7.5260   29.8540  116.7740 H       1  UNL1        0.0618
     24 H           7.1240   28.6350  114.6520 H       1  UNL1        0.0618
     25 H           8.7220   26.9240  113.8770 H       1  UNL1        0.0621
     26 H          16.0140   25.5700  115.4800 H       1  UNL1        0.2129
     27 H          13.7140   24.4830  111.6030 H       1  UNL1        0.0573
     28 H          14.7580   21.6260  111.2320 H       1  UNL1        0.0595
     29 H          14.1850   19.5230  111.5820 H       1  UNL1        0.0524
     30 H          12.1860   21.1360  114.7970 H       1  UNL1        0.0291
     31 H          11.9220   23.8820  113.4650 H       1  UNL1        0.0266
     32 H          11.8920   22.9420  116.3720 H       1  UNL1        0.0267
     33 H           9.9950   24.4650  116.0960 H       1  UNL1        0.0304
     34 H          13.1960   29.3330  115.2860 H       1  UNL1        0.0239
     35 H          18.7640   29.1890  113.7850 H       1  UNL1        0.0524
     36 H          18.8990   27.0420  111.6210 H       1  UNL1        0.0234
     37 H          16.6710   22.5550  110.2350 H       1  UNL1        0.0236
     38 H          11.2670   22.6710  109.1740 H       1  UNL1        0.0524
     39 H          14.4390   20.0850  113.2740 H       1  UNL1        0.0524
     40 H          14.9570   29.4390  115.2890 H       1  UNL1        0.0239
     41 H          17.7400   30.3900  112.9790 H       1  UNL1        0.0524
     42 H          17.1670   27.1900  111.2660 H       1  UNL1        0.0234
     43 H          17.0010   22.4120  111.9750 H       1  UNL1        0.0236
     44 H          13.0240   22.6090  108.8130 H       1  UNL1        0.0524
     45 C          12.8400   27.0890  113.9090 C.2     1  UNL1        0.3158
     46 C          14.1690   27.8050  114.0780 C.3     1  UNL1        0.1098
     47 C          15.3300   26.7850  114.1050 C.3     1  UNL1        0.2096
     48 C          16.7160   27.5010  114.2470 C.3     1  UNL1        0.1386
     49 C          17.8430   26.4700  114.0250 C.3     1  UNL1        0.0913
     50 C          17.6620   25.6380  112.7400 C.3     1  UNL1        0.0117
     51 C          16.2430   25.0180  112.7180 C.3     1  UNL1        0.0730
     52 C          15.8980   24.2170  111.4230 C.3     1  UNL1        0.0011
     53 C          14.4640   23.6970  111.4850 C.2     1  UNL1       -0.0802
     54 C          14.0410   22.4240  111.3830 C.2     1  UNL1       -0.0568
     55 C          12.5870   22.0070  111.3890 C.3     1  UNL1        0.1025
     56 C          12.1160   21.1950  112.6420 C.3     1  UNL1        0.0879
     57 C          12.4350   21.8490  114.0000 C.3     1  UNL1       -0.0239
     58 C          11.6630   23.1500  114.2360 C.3     1  UNL1       -0.0505
     59 C          11.9690   23.7340  115.6160 C.3     1  UNL1       -0.0493
     60 C          11.0150   24.8640  116.0270 C.3     1  UNL1       -0.0114
     61 C          11.0320   26.0840  115.0920 C.3     1  UNL1        0.1280
     62 C          14.1170   28.7380  115.2920 C.3     1  UNL1       -0.0472
     63 C          17.7500   29.5930  113.7280 C.3     1  UNL1        0.0371
     64 C          17.9670   26.4800  111.4950 C.3     1  UNL1       -0.0576
     65 C          16.9300   23.1170  111.1390 C.3     1  UNL1       -0.0566
     66 C          12.1350   22.0170  109.0460 C.3     1  UNL1        0.0373
     67 C          13.8300   19.4640  112.6130 C.3     1  UNL1        0.0369
     68 C          10.0560   27.1470  115.5690 C.ar    1  UNL1       -0.0073
     69 C          10.2730   27.8510  116.7660 C.ar    1  UNL1       -0.0551
     70 C           9.3660   28.8190  117.1980 C.ar    1  UNL1       -0.0614
     71 C           8.2320   29.0990  116.4390 C.ar    1  UNL1       -0.0617
     72 C           8.0060   28.4130  115.2470 C.ar    1  UNL1       -0.0614
     73 C           8.9120   27.4430  114.8140 C.ar    1  UNL1       -0.0551
     74 O          12.2710   26.9570  112.8310 O.2     1  UNL1       -0.2503
     75 O          15.1320   25.8940  115.2080 O.3     1  UNL1       -0.3619
     76 O          16.8230   28.5950  113.3230 O.3     1  UNL1       -0.3718
     77 O          17.8650   25.5780  115.1550 O.3     1  UNL1       -0.3887
     78 O          15.2710   26.0630  112.8670 O.3     1  UNL1       -0.3415
     79 O          12.3380   21.2240  110.2090 O.3     1  UNL1       -0.3732
     80 O          12.4580   19.7960  112.6800 O.3     1  UNL1       -0.3769
     81 O          12.3500   26.6550  115.1020 O.3     1  UNL1       -0.4563
@<TRIPOS>BOND
     1    19    66    1
     2    44    66    1
     3    66    38    1
     4    66    79    1
     5    79    55    1
     6    37    65    1
     7     7    52    1
     8    17    64    1
     9    18    65    1
    10    65    52    1
    11    65    43    1
    12    28    54    1
    13    42    64    1
    14     8    55    1
    15    54    55    1
    16    54    53    2
    17    55    56    1
    18    52    53    1
    19    52    51    1
    20    53    27    1
    21    64    36    1
    22    64    50    1
    23    29    67    1
    24     9    56    1
    25    67    80    1
    26    67    20    1
    27    67    39    1
    28    56    80    1
    29    56    57    1
    30    51    50    1
    31    51    78    1
    32    51     6    1
    33    50     5    1
    34    50    49    1
    35    74    45    2
    36    78    47    1
    37    41    63    1
    38     2    46    1
    39    76    63    1
    40    76    48    1
    41    31    58    1
    42    63    35    1
    43    63    16    1
    44    25    73    1
    45    45    46    1
    46    45    81    1
    47    57    10    1
    48    57    58    1
    49    57    30    1
    50     4    49    1
    51    49    48    1
    52    49    77    1
    53    46    47    1
    54    46    62    1
    55    14    61    1
    56    47    48    1
    57    47    75    1
    58    11    58    1
    59    58    59    1
    60    48     3    1
    61    24    72    1
    62    73    72   ar
    63    73    68   ar
    64    61    81    1
    65    61    68    1
    66    61    60    1
    67     1    77    1
    68    75    26    1
    69    72    71   ar
    70    34    62    1
    71    40    62    1
    72    62    15    1
    73    68    69   ar
    74    59    12    1
    75    59    60    1
    76    59    32    1
    77    60    33    1
    78    60    13    1
    79    71    23    1
    80    71    70   ar
    81    69    70   ar
    82    69    21    1
    83    70    22    1
