@<TRIPOS>MOLECULE
129.59840
 81 83 0 0 0
SMALL
GASTEIGER

@<TRIPOS>ATOM
      1 H          17.8890   25.2160  113.7080 H       1  UNL1        0.2099
      2 H          12.4640   27.5020  113.9060 H       1  UNL1        0.0465
      3 H          15.7000   27.7800  113.1660 H       1  UNL1        0.0676
      4 H          16.5210   25.6370  112.0140 H       1  UNL1        0.0624
      5 H          16.2790   23.5540  113.4020 H       1  UNL1        0.0349
      6 H          15.5560   24.5670  115.5020 H       1  UNL1        0.0606
      7 H          13.1850   22.9120  114.5160 H       1  UNL1        0.0365
      8 H          12.3980   23.8650  118.9530 H       1  UNL1        0.0666
      9 H          13.4060   23.0030  121.1470 H       1  UNL1        0.0625
     10 H          15.1020   24.5380  119.1160 H       1  UNL1        0.0291
     11 H          15.1240   26.1680  121.1040 H       1  UNL1        0.0266
     12 H          12.9200   27.1180  120.9120 H       1  UNL1        0.0267
     13 H          13.6610   26.0510  118.1470 H       1  UNL1        0.0304
     14 H          11.6190   27.5710  118.3330 H       1  UNL1        0.0785
     15 H          14.4350   29.4990  115.1430 H       1  UNL1        0.0239
     16 H          14.9340   28.5300  111.1210 H       1  UNL1        0.0524
     17 H          14.2380   22.7960  112.3470 H       1  UNL1        0.0234
     18 H          15.2600   21.6190  114.1060 H       1  UNL1        0.0236
     19 H          10.0890   21.2240  118.9390 H       1  UNL1        0.0524
     20 H          15.1160   19.9810  120.8960 H       1  UNL1        0.0524
     21 H          14.7550   29.7080  118.6220 H       1  UNL1        0.0621
     22 H          14.8190   31.7960  119.9380 H       1  UNL1        0.0618
     23 H          12.8090   32.5480  121.1840 H       1  UNL1        0.0618
     24 H          10.7280   31.2000  121.1070 H       1  UNL1        0.0618
     25 H          10.6480   29.1080  119.8050 H       1  UNL1        0.0621
     26 H          16.2110   26.7270  115.3070 H       1  UNL1        0.2129
     27 H          12.7310   24.1520  116.6030 H       1  UNL1        0.0573
     28 H          14.2590   21.7290  117.7050 H       1  UNL1        0.0595
     29 H          13.6760   20.7970  121.5300 H       1  UNL1        0.0524
     30 H          15.8040   24.0330  120.6220 H       1  UNL1        0.0291
     31 H          13.9320   25.1620  121.8950 H       1  UNL1        0.0266
     32 H          12.2710   25.6990  120.1210 H       1  UNL1        0.0267
     33 H          14.6240   27.2690  118.9380 H       1  UNL1        0.0304
     34 H          12.7640   29.8660  114.7020 H       1  UNL1        0.0239
     35 H          15.5170   26.9460  110.5140 H       1  UNL1        0.0524
     36 H          14.9680   23.9670  111.2560 H       1  UNL1        0.0234
     37 H          14.3910   20.9370  115.4660 H       1  UNL1        0.0236
     38 H          10.2960   22.9810  118.8220 H       1  UNL1        0.0524
     39 H          13.7340   20.2190  119.8270 H       1  UNL1        0.0524
     40 H          13.9220   29.4050  113.4520 H       1  UNL1        0.0239
     41 H          13.8620   27.4810  110.1730 H       1  UNL1        0.0524
     42 H          13.5720   24.4220  112.2500 H       1  UNL1        0.0234
     43 H          15.8250   21.9460  115.7490 H       1  UNL1        0.0236
     44 H          10.9220   21.9010  117.5310 H       1  UNL1        0.0524
     45 C          12.5130   27.5220  115.9950 C.2     1  UNL1        0.3158
     46 C          13.2200   27.7390  114.6680 C.3     1  UNL1        0.1098
     47 C          14.4020   26.7460  114.5600 C.3     1  UNL1        0.2096
     48 C          15.1220   26.8460  113.1730 C.3     1  UNL1        0.1386
     49 C          16.1030   25.6600  113.0250 C.3     1  UNL1        0.0913
     50 C          15.4680   24.2910  113.3520 C.3     1  UNL1        0.0117
     51 C          14.7920   24.3610  114.7400 C.3     1  UNL1        0.0730
     52 C          14.0370   23.0720  115.1910 C.3     1  UNL1        0.0011
     53 C          13.4170   23.3030  116.5660 C.2     1  UNL1       -0.0802
     54 C          13.6020   22.5940  117.6940 C.2     1  UNL1       -0.0568
     55 C          12.9400   22.9160  119.0150 C.3     1  UNL1        0.1025
     56 C          13.9580   23.0120  120.1980 C.3     1  UNL1        0.0879
     57 C          14.8430   24.2750  120.1470 C.3     1  UNL1       -0.0239
     58 C          14.2850   25.4850  120.9080 C.3     1  UNL1       -0.0505
     59 C          13.1800   26.2990  120.2320 C.3     1  UNL1       -0.0493
     60 C          13.6040   26.8680  118.8760 C.3     1  UNL1       -0.0114
     61 C          12.6490   27.9480  118.3300 C.3     1  UNL1        0.1280
     62 C          13.6120   29.2070  114.4820 C.3     1  UNL1       -0.0472
     63 C          14.6600   27.4900  110.9200 C.3     1  UNL1        0.0371
     64 C          14.5050   23.8520  112.2410 C.3     1  UNL1       -0.0576
     65 C          14.9310   21.8280  115.1270 C.3     1  UNL1       -0.0566
     66 C          10.7650   22.0160  118.6070 C.3     1  UNL1        0.0373
     67 C          14.3030   20.6690  120.6440 C.3     1  UNL1        0.0369
     68 C          12.7010   29.2420  119.1240 C.ar    1  UNL1       -0.0073
     69 C          13.8690   30.0200  119.1720 C.ar    1  UNL1       -0.0551
     70 C          13.9080   31.2040  119.9110 C.ar    1  UNL1       -0.0614
     71 C          12.7790   31.6260  120.6090 C.ar    1  UNL1       -0.0617
     72 C          11.6110   30.8680  120.5660 C.ar    1  UNL1       -0.0614
     73 C          11.5710   29.6840  119.8280 C.ar    1  UNL1       -0.0551
     74 O          11.5760   26.7460  116.1530 O.2     1  UNL1       -0.2503
     75 O          15.3330   27.0330  115.6110 O.3     1  UNL1       -0.3619
     76 O          14.1690   26.8680  112.1000 O.3     1  UNL1       -0.3718
     77 O          17.2080   25.8810  113.9210 O.3     1  UNL1       -0.3887
     78 O          13.8470   25.4380  114.7330 O.3     1  UNL1       -0.3415
     79 O          11.9880   21.8810  119.3220 O.3     1  UNL1       -0.3732
     80 O          14.8860   21.8990  120.2360 O.3     1  UNL1       -0.3769
     81 O          13.0670   28.2660  116.9890 O.3     1  UNL1       -0.4563
@<TRIPOS>BOND
     1    41    63    1
     2    35    63    1
     3    63    16    1
     4    63    76    1
     5    36    64    1
     6     4    49    1
     7    76    48    1
     8    64    42    1
     9    64    17    1
    10    64    50    1
    11    49    48    1
    12    49    50    1
    13    49    77    1
    14     3    48    1
    15    48    47    1
    16    50     5    1
    17    50    51    1
    18    40    62    1
    19     1    77    1
    20     2    46    1
    21    18    65    1
    22    62    46    1
    23    62    34    1
    24    62    15    1
    25     7    52    1
    26    47    46    1
    27    47    78    1
    28    47    75    1
    29    46    45    1
    30    78    51    1
    31    51    52    1
    32    51     6    1
    33    65    52    1
    34    65    37    1
    35    65    43    1
    36    52    53    1
    37    26    75    1
    38    45    74    2
    39    45    81    1
    40    53    27    1
    41    53    54    2
    42    81    61    1
    43    44    66    1
    44    54    28    1
    45    54    55    1
    46    13    60    1
    47    61    14    1
    48    61    60    1
    49    61    68    1
    50    66    38    1
    51    66    19    1
    52    66    79    1
    53    21    69    1
    54    60    33    1
    55    60    59    1
    56     8    55    1
    57    55    79    1
    58    55    56    1
    59    10    57    1
    60    68    69   ar
    61    68    73   ar
    62    69    70   ar
    63    25    73    1
    64    39    67    1
    65    73    72   ar
    66    70    22    1
    67    70    71   ar
    68    32    59    1
    69    57    56    1
    70    57    30    1
    71    57    58    1
    72    56    80    1
    73    56     9    1
    74    59    58    1
    75    59    12    1
    76    80    67    1
    77    72    71   ar
    78    72    24    1
    79    71    23    1
    80    67    20    1
    81    67    29    1
    82    58    11    1
    83    58    31    1
