@<TRIPOS>MOLECULE
125.50937
 81 83 0 0 0
SMALL
GASTEIGER

@<TRIPOS>ATOM
      1 H          19.0550   24.7920  114.8700 H       1  UNL1        0.2099
      2 H          13.5560   26.6800  114.0020 H       1  UNL1        0.0465
      3 H          16.8370   27.1730  113.8340 H       1  UNL1        0.0676
      4 H          17.9750   25.0510  112.9450 H       1  UNL1        0.0624
      5 H          17.6290   23.0130  114.3610 H       1  UNL1        0.0349
      6 H          16.5290   24.0790  116.2690 H       1  UNL1        0.0606
      7 H          14.4460   22.1960  115.0690 H       1  UNL1        0.0365
      8 H          13.0300   23.1050  119.3370 H       1  UNL1        0.0666
      9 H          14.1650   23.2660  121.5780 H       1  UNL1        0.0625
     10 H          15.8670   24.5530  119.3770 H       1  UNL1        0.0291
     11 H          13.3200   25.5500  120.7710 H       1  UNL1        0.0266
     12 H          15.2470   27.0010  118.8770 H       1  UNL1        0.0267
     13 H          13.8830   28.9860  119.3860 H       1  UNL1        0.0304
     14 H          12.1130   26.7410  118.2910 H       1  UNL1        0.0785
     15 H          15.1440   28.8910  115.4090 H       1  UNL1        0.0239
     16 H          16.4010   27.7830  111.6530 H       1  UNL1        0.0524
     17 H          15.8220   22.0860  113.0430 H       1  UNL1        0.0234
     18 H          16.5980   21.0140  114.9330 H       1  UNL1        0.0236
     19 H          11.8800   19.8490  119.9270 H       1  UNL1        0.0524
     20 H          16.7600   21.0110  122.1450 H       1  UNL1        0.0524
     21 H          12.9080   30.4210  117.6730 H       1  UNL1        0.0621
     22 H          11.1450   32.1120  117.3180 H       1  UNL1        0.0618
     23 H           8.7540   31.4540  117.3740 H       1  UNL1        0.0618
     24 H           8.1300   29.0880  117.7840 H       1  UNL1        0.0618
     25 H           9.8770   27.3850  118.1430 H       1  UNL1        0.0621
     26 H          17.0230   26.2660  116.0920 H       1  UNL1        0.2129
     27 H          13.5900   23.3650  117.0140 H       1  UNL1        0.0573
     28 H          15.5140   21.4660  118.4810 H       1  UNL1        0.0595
     29 H          15.0640   21.3920  122.4950 H       1  UNL1        0.0524
     30 H          15.8030   25.0230  121.0540 H       1  UNL1        0.0291
     31 H          13.5080   25.2150  119.0460 H       1  UNL1        0.0266
     32 H          15.0940   27.3160  120.5980 H       1  UNL1        0.0267
     33 H          12.7420   28.0280  120.3240 H       1  UNL1        0.0304
     34 H          13.5610   29.1070  114.6540 H       1  UNL1        0.0239
     35 H          17.1710   26.2190  111.2330 H       1  UNL1        0.0524
     36 H          16.6450   23.2590  112.0230 H       1  UNL1        0.0234
     37 H          15.6800   20.3630  116.2780 H       1  UNL1        0.0236
     38 H          11.4150   21.4950  119.4580 H       1  UNL1        0.0524
     39 H          15.5200   20.4760  121.0130 H       1  UNL1        0.0524
     40 H          14.9480   28.6520  113.6670 H       1  UNL1        0.0239
     41 H          15.5710   26.6300  110.5910 H       1  UNL1        0.0524
     42 H          15.0860   23.6600  112.7700 H       1  UNL1        0.0234
     43 H          17.0200   21.4890  116.5810 H       1  UNL1        0.0236
     44 H          12.4680   20.5080  118.3900 H       1  UNL1        0.0524
     45 C          13.1970   26.8560  116.0480 C.2     1  UNL1        0.3158
     46 C          14.1400   27.0190  114.8690 C.3     1  UNL1        0.1098
     47 C          15.3800   26.1100  115.0410 C.3     1  UNL1        0.2096
     48 C          16.3260   26.2010  113.7920 C.3     1  UNL1        0.1386
     49 C          17.3910   25.0860  113.8700 C.3     1  UNL1        0.0913
     50 C          16.7930   23.6930  114.1540 C.3     1  UNL1        0.0117
     51 C          15.9070   23.7740  115.4160 C.3     1  UNL1        0.0730
     52 C          15.2030   22.4450  115.8250 C.3     1  UNL1        0.0011
     53 C          14.4270   22.6710  117.1170 C.2     1  UNL1       -0.0802
     54 C          14.6800   22.1450  118.3290 C.2     1  UNL1       -0.0568
     55 C          13.8870   22.4630  119.5720 C.3     1  UNL1        0.1025
     56 C          14.7540   23.1860  120.6550 C.3     1  UNL1        0.0879
     57 C          15.1920   24.6060  120.2410 C.3     1  UNL1       -0.0239
     58 C          14.0350   25.5590  119.9400 C.3     1  UNL1       -0.0505
     59 C          14.5370   26.9870  119.7120 C.3     1  UNL1       -0.0493
     60 C          13.4110   27.9970  119.4550 C.3     1  UNL1       -0.0114
     61 C          12.5940   27.7200  118.1790 C.3     1  UNL1        0.1280
     62 C          14.4710   28.4980  114.6390 C.3     1  UNL1       -0.0472
     63 C          16.2270   26.7200  111.4610 C.3     1  UNL1        0.0371
     64 C          16.0410   23.1520  112.9310 C.3     1  UNL1       -0.0576
     65 C          16.1820   21.2660  115.9120 C.3     1  UNL1       -0.0566
     66 C          12.2230   20.7580  119.4260 C.3     1  UNL1        0.0373
     67 C          15.8010   21.2830  121.6940 C.3     1  UNL1        0.0369
     68 C          11.5260   28.7790  117.9590 C.ar    1  UNL1       -0.0073
     69 C          11.8640   30.1190  117.7130 C.ar    1  UNL1       -0.0551
     70 C          10.8700   31.0780  117.5080 C.ar    1  UNL1       -0.0614
     71 C           9.5270   30.7080  117.5380 C.ar    1  UNL1       -0.0617
     72 C           9.1770   29.3800  117.7710 C.ar    1  UNL1       -0.0614
     73 C          10.1690   28.4200  117.9790 C.ar    1  UNL1       -0.0551
     74 O          12.2710   26.0510  116.0730 O.2     1  UNL1       -0.2503
     75 O          16.0870   26.5270  116.2140 O.3     1  UNL1       -0.3619
     76 O          15.5770   26.1130  112.5700 O.3     1  UNL1       -0.3718
     77 O          18.3110   25.4220  114.9240 O.3     1  UNL1       -0.3887
     78 O          14.8950   24.7710  115.2080 O.3     1  UNL1       -0.3415
     79 O          13.3670   21.2400  120.1230 O.3     1  UNL1       -0.3732
     80 O          15.9830   22.4980  120.9830 O.3     1  UNL1       -0.3769
     81 O          13.4850   27.7300  117.0520 O.3     1  UNL1       -0.4563
@<TRIPOS>BOND
     1    41    63    1
     2    35    63    1
     3    63    16    1
     4    63    76    1
     5    36    64    1
     6    76    48    1
     7    42    64    1
     8    64    17    1
     9    64    50    1
    10     4    49    1
    11    40    62    1
    12    48     3    1
    13    48    49    1
    14    48    47    1
    15    49    50    1
    16    49    77    1
    17     2    46    1
    18    50     5    1
    19    50    51    1
    20    62    34    1
    21    62    46    1
    22    62    15    1
    23    46    47    1
    24    46    45    1
    25     1    77    1
    26    18    65    1
    27    47    78    1
    28    47    75    1
    29     7    52    1
    30    78    51    1
    31    51    52    1
    32    51     6    1
    33    52    65    1
    34    52    53    1
    35    65    37    1
    36    65    43    1
    37    45    74    2
    38    45    81    1
    39    26    75    1
    40    27    53    1
    41    81    61    1
    42    53    54    2
    43    22    70    1
    44    23    71    1
    45    70    71   ar
    46    70    69   ar
    47    71    72   ar
    48    21    69    1
    49    69    68   ar
    50    72    24    1
    51    72    73   ar
    52    68    73   ar
    53    68    61    1
    54    73    25    1
    55    61    14    1
    56    61    60    1
    57    54    28    1
    58    54    55    1
    59    44    66    1
    60    12    59    1
    61    31    58    1
    62     8    55    1
    63    10    57    1
    64    13    60    1
    65    66    38    1
    66    66    19    1
    67    66    79    1
    68    60    59    1
    69    60    33    1
    70    55    79    1
    71    55    56    1
    72    59    58    1
    73    59    32    1
    74    58    57    1
    75    58    11    1
    76    57    56    1
    77    57    30    1
    78    56    80    1
    79    56     9    1
    80    80    67    1
    81    39    67    1
    82    67    20    1
    83    67    29    1
