@<TRIPOS>MOLECULE
135.73187
 81 83 0 0 0
SMALL
GASTEIGER

@<TRIPOS>ATOM
      1 H          19.3750   28.7720  115.9580 H       1  UNL1        0.2099
      2 H          14.1610   26.7100  114.2380 H       1  UNL1        0.0465
      3 H          16.4970   29.0290  114.1410 H       1  UNL1        0.0676
      4 H          18.8050   27.9240  113.9910 H       1  UNL1        0.0624
      5 H          19.3740   26.4320  115.9210 H       1  UNL1        0.0349
      6 H          17.4730   26.9450  117.3720 H       1  UNL1        0.0606
      7 H          17.1610   24.0030  116.6150 H       1  UNL1        0.0365
      8 H          13.4710   23.8030  119.3370 H       1  UNL1        0.0666
      9 H          13.9100   24.2230  121.7660 H       1  UNL1        0.0625
     10 H          13.6130   26.5970  121.6810 H       1  UNL1        0.0291
     11 H          14.4910   26.6040  118.7660 H       1  UNL1        0.0266
     12 H          14.3810   29.0330  118.9880 H       1  UNL1        0.0267
     13 H          12.0660   29.5100  119.1200 H       1  UNL1        0.0304
     14 H          12.0750   26.5910  118.2210 H       1  UNL1        0.0785
     15 H          13.8120   29.6360  115.0800 H       1  UNL1        0.0239
     16 H          16.2750   28.7800  111.8540 H       1  UNL1        0.0524
     17 H          18.7850   24.3610  114.8210 H       1  UNL1        0.0234
     18 H          19.5820   24.3630  116.9720 H       1  UNL1        0.0236
     19 H          14.2170   20.4700  120.0860 H       1  UNL1        0.0524
     20 H          16.8820   25.3840  123.1870 H       1  UNL1        0.0524
     21 H          11.0250   29.9840  116.8590 H       1  UNL1        0.0621
     22 H           8.7230   30.4650  116.1050 H       1  UNL1        0.0618
     23 H           6.9590   28.7310  116.2980 H       1  UNL1        0.0618
     24 H           7.5090   26.5060  117.2460 H       1  UNL1        0.0618
     25 H           9.8030   26.0070  118.0050 H       1  UNL1        0.0621
     26 H          16.6660   28.9010  116.5730 H       1  UNL1        0.2129
     27 H          16.8410   25.3390  119.3780 H       1  UNL1        0.0573
     28 H          15.2040   23.3610  117.7280 H       1  UNL1        0.0595
     29 H          15.3470   26.2570  123.0630 H       1  UNL1        0.0524
     30 H          12.7390   25.8550  120.3570 H       1  UNL1        0.0291
     31 H          15.4890   27.1850  120.0920 H       1  UNL1        0.0266
     32 H          13.8820   28.9130  120.6610 H       1  UNL1        0.0267
     33 H          11.6920   28.0940  120.0790 H       1  UNL1        0.0304
     34 H          12.6190   28.6950  114.1790 H       1  UNL1        0.0239
     35 H          17.8800   27.9880  111.9650 H       1  UNL1        0.0524
     36 H          18.9740   25.5650  113.5530 H       1  UNL1        0.0234
     37 H          18.9130   23.5590  118.3840 H       1  UNL1        0.0236
     38 H          12.9140   21.6060  119.6880 H       1  UNL1        0.0524
     39 H          15.3660   24.5120  123.4820 H       1  UNL1        0.0524
     40 H          14.1990   29.0220  113.4660 H       1  UNL1        0.0239
     41 H          16.5360   27.1760  111.1430 H       1  UNL1        0.0524
     42 H          17.3550   25.0540  114.0680 H       1  UNL1        0.0234
     43 H          19.2660   25.2930  118.4430 H       1  UNL1        0.0236
     44 H          14.2870   21.3640  118.5570 H       1  UNL1        0.0524
     45 C          13.2920   27.0010  116.1070 C.2     1  UNL1        0.3158
     46 C          14.2240   27.4850  115.0140 C.3     1  UNL1        0.1098
     47 C          15.6820   27.5720  115.5280 C.3     1  UNL1        0.2096
     48 C          16.6570   27.9640  114.3620 C.3     1  UNL1        0.1386
     49 C          18.1150   27.7780  114.8290 C.3     1  UNL1        0.0913
     50 C          18.3720   26.4020  115.4740 C.3     1  UNL1        0.0117
     51 C          17.3440   26.1700  116.6050 C.3     1  UNL1        0.0730
     52 C          17.4620   24.7910  117.3170 C.3     1  UNL1        0.0011
     53 C          16.5490   24.7270  118.5290 C.2     1  UNL1       -0.0802
     54 C          15.4550   23.9520  118.6070 C.2     1  UNL1       -0.0568
     55 C          14.4870   23.7700  119.7570 C.3     1  UNL1        0.1025
     56 C          14.4820   24.7460  120.9850 C.3     1  UNL1        0.0879
     57 C          13.7470   26.0790  120.7240 C.3     1  UNL1       -0.0239
     58 C          14.4520   27.0380  119.7670 C.3     1  UNL1       -0.0505
     59 C          13.7970   28.4190  119.6850 C.3     1  UNL1       -0.0493
     60 C          12.3250   28.4520  119.2570 C.3     1  UNL1       -0.0114
     61 C          11.9940   27.6580  117.9800 C.3     1  UNL1        0.1280
     62 C          13.6880   28.7840  114.4030 C.3     1  UNL1       -0.0472
     63 C          16.7990   27.8280  111.9800 C.3     1  UNL1        0.0371
     64 C          18.3640   25.2870  114.4190 C.3     1  UNL1       -0.0576
     65 C          18.8850   24.4890  117.8040 C.3     1  UNL1       -0.0566
     66 C          13.9910   21.4270  119.6080 C.3     1  UNL1        0.0373
     67 C          15.8360   25.2960  122.8810 C.3     1  UNL1        0.0369
     68 C          10.5840   27.9640  117.5020 C.ar    1  UNL1       -0.0073
     69 C          10.2590   29.2170  116.9560 C.ar    1  UNL1       -0.0551
     70 C           8.9600   29.4920  116.5260 C.ar    1  UNL1       -0.0614
     71 C           7.9700   28.5180  116.6340 C.ar    1  UNL1       -0.0617
     72 C           8.2790   27.2690  117.1690 C.ar    1  UNL1       -0.0614
     73 C           9.5780   26.9920  117.6000 C.ar    1  UNL1       -0.0551
     74 O          12.8930   25.8430  116.1930 O.2     1  UNL1       -0.2503
     75 O          15.7480   28.5640  116.5580 O.3     1  UNL1       -0.3619
     76 O          16.3910   27.1900  113.1820 O.3     1  UNL1       -0.3718
     77 O          18.4150   28.8070  115.7900 O.3     1  UNL1       -0.3887
     78 O          16.0190   26.2840  116.0610 O.3     1  UNL1       -0.3415
     79 O          14.7150   22.4430  120.2870 O.3     1  UNL1       -0.3732
     80 O          15.8060   24.9610  121.5020 O.3     1  UNL1       -0.3769
     81 O          12.9200   28.0120  116.9420 O.3     1  UNL1       -0.4563
@<TRIPOS>BOND
     1    41    63    1
     2    16    63    1
     3    35    63    1
     4    63    76    1
     5    76    48    1
     6    40    62    1
     7    36    64    1
     8     4    49    1
     9    42    64    1
    10     3    48    1
    11    34    62    1
    12     2    46    1
    13    48    49    1
    14    48    47    1
    15    62    46    1
    16    62    15    1
    17    64    17    1
    18    64    50    1
    19    49    50    1
    20    49    77    1
    21    46    47    1
    22    46    45    1
    23    50     5    1
    24    50    51    1
    25    47    78    1
    26    47    75    1
    27    77     1    1
    28    78    51    1
    29    22    70    1
    30    45    74    2
    31    45    81    1
    32    23    71    1
    33    70    71   ar
    34    70    69   ar
    35    75    26    1
    36    51    52    1
    37    51     6    1
    38     7    52    1
    39    71    72   ar
    40    21    69    1
    41    81    61    1
    42    69    68   ar
    43    18    65    1
    44    72    24    1
    45    72    73   ar
    46    52    65    1
    47    52    53    1
    48    68    73   ar
    49    68    61    1
    50    73    25    1
    51    28    54    1
    52    65    37    1
    53    65    43    1
    54    61    14    1
    55    61    60    1
    56    53    54    2
    57    53    27    1
    58    44    66    1
    59    54    55    1
    60    11    58    1
    61    12    59    1
    62    13    60    1
    63    60    59    1
    64    60    33    1
    65     8    55    1
    66    66    38    1
    67    66    19    1
    68    66    79    1
    69    59    58    1
    70    59    32    1
    71    55    79    1
    72    55    56    1
    73    58    31    1
    74    58    57    1
    75    30    57    1
    76    57    56    1
    77    57    10    1
    78    56    80    1
    79    56     9    1
    80    80    67    1
    81    67    29    1
    82    67    20    1
    83    67    39    1
