@<TRIPOS>MOLECULE
152.67733
 81 83 0 0 0
SMALL
GASTEIGER

@<TRIPOS>ATOM
      1 H           9.5810   21.0030  117.5930 H       1  UNL1        0.2099
      2 H          11.8430   26.0180  115.1940 H       1  UNL1        0.0465
      3 H           8.8580   23.4290  115.2700 H       1  UNL1        0.0676
      4 H           8.2090   22.7280  117.6740 H       1  UNL1        0.0624
      5 H          10.1620   22.5420  119.2640 H       1  UNL1        0.0349
      6 H          11.9680   22.9030  117.6810 H       1  UNL1        0.0606
      7 H          12.0600   25.2570  119.6130 H       1  UNL1        0.0365
      8 H          15.8600   25.3770  117.1020 H       1  UNL1        0.0666
      9 H          17.4880   23.8660  116.1440 H       1  UNL1        0.0625
     10 H          15.0160   22.1000  116.0860 H       1  UNL1        0.0291
     11 H          13.9790   24.2680  115.7660 H       1  UNL1        0.0266
     12 H          15.6200   24.7850  113.2620 H       1  UNL1        0.0267
     13 H          15.0400   27.2060  114.1150 H       1  UNL1        0.0304
     14 H          12.5450   27.1130  113.4700 H       1  UNL1        0.0785
     15 H           8.9710   26.0270  114.2140 H       1  UNL1        0.0239
     16 H           6.8930   24.6330  115.1970 H       1  UNL1        0.0524
     17 H           9.8310   24.6880  120.3110 H       1  UNL1        0.0234
     18 H          11.7070   23.2160  120.9180 H       1  UNL1        0.0236
     19 H          17.9250   26.2730  119.8060 H       1  UNL1        0.0524
     20 H          18.5230   20.7640  117.3860 H       1  UNL1        0.0524
     21 H          14.1540   24.8430  111.0060 H       1  UNL1        0.0621
     22 H          15.0980   25.6680  108.8830 H       1  UNL1        0.0618
     23 H          15.3330   28.1040  108.4760 H       1  UNL1        0.0618
     24 H          14.6140   29.7240  110.2110 H       1  UNL1        0.0618
     25 H          13.6710   28.9230  112.3410 H       1  UNL1        0.0621
     26 H          11.0140   22.3720  115.7140 H       1  UNL1        0.2129
     27 H          13.6940   25.6180  117.9320 H       1  UNL1        0.0573
     28 H          15.0620   23.0980  119.0450 H       1  UNL1        0.0595
     29 H          17.9000   21.2050  115.7860 H       1  UNL1        0.0524
     30 H          16.1710   22.3940  114.8200 H       1  UNL1        0.0291
     31 H          14.0330   23.3600  114.2770 H       1  UNL1        0.0266
     32 H          16.2330   25.3710  114.7920 H       1  UNL1        0.0267
     33 H          13.9560   26.4340  115.2320 H       1  UNL1        0.0304
     34 H          10.1920   27.2350  113.8760 H       1  UNL1        0.0239
     35 H           6.6510   24.0830  116.8870 H       1  UNL1        0.0524
     36 H           8.3130   24.2760  119.5200 H       1  UNL1        0.0234
     37 H          13.4010   23.6780  121.0510 H       1  UNL1        0.0236
     38 H          16.9340   26.8770  118.4650 H       1  UNL1        0.0524
     39 H          19.0600   22.2780  116.6350 H       1  UNL1        0.0524
     40 H           9.6510   27.0150  115.5390 H       1  UNL1        0.0239
     41 H           6.5480   25.8040  116.4840 H       1  UNL1        0.0524
     42 H           9.4020   25.4750  118.7960 H       1  UNL1        0.0234
     43 H          12.9280   22.3390  119.9860 H       1  UNL1        0.0236
     44 H          16.1670   26.0680  119.8710 H       1  UNL1        0.0524
     45 C          11.3460   24.8710  113.4710 C.2     1  UNL1        0.3158
     46 C          10.9870   25.4510  114.8240 C.3     1  UNL1        0.1098
     47 C          10.7440   24.3160  115.8650 C.3     1  UNL1        0.2096
     48 C           9.2580   23.9200  116.1670 C.3     1  UNL1        0.1386
     49 C           9.2390   22.9210  117.3570 C.3     1  UNL1        0.0913
     50 C          10.0680   23.3930  118.5780 C.3     1  UNL1        0.0117
     51 C          11.4810   23.7910  118.1060 C.3     1  UNL1        0.0730
     52 C          12.4560   24.3220  119.1960 C.3     1  UNL1        0.0011
     53 C          13.7650   24.7010  118.5190 C.2     1  UNL1       -0.0802
     54 C          14.9300   24.0280  118.4990 C.2     1  UNL1       -0.0568
     55 C          16.1170   24.4800  117.6780 C.3     1  UNL1        0.1025
     56 C          16.6380   23.4080  116.6670 C.3     1  UNL1        0.0879
     57 C          15.6190   22.8950  115.6260 C.3     1  UNL1       -0.0239
     58 C          14.6590   23.9040  114.9940 C.3     1  UNL1       -0.0505
     59 C          15.3150   25.0810  114.2710 C.3     1  UNL1       -0.0493
     60 C          14.4040   26.3190  114.2370 C.3     1  UNL1       -0.0114
     61 C          13.2800   26.3540  113.1770 C.3     1  UNL1        0.1280
     62 C           9.8830   26.4830  114.6120 C.3     1  UNL1       -0.0472
     63 C           7.0650   24.8690  116.2510 C.3     1  UNL1        0.0371
     64 C           9.3630   24.5240  119.3350 C.3     1  UNL1       -0.0576
     65 C          12.6350   23.3300  120.3480 C.3     1  UNL1       -0.0566
     66 C          17.0330   26.0770  119.2040 C.3     1  UNL1        0.0373
     67 C          18.2090   21.6010  116.7560 C.3     1  UNL1        0.0369
     68 C          13.8350   26.8180  111.8360 C.ar    1  UNL1       -0.0073
     69 C          14.2480   25.9160  110.8470 C.ar    1  UNL1       -0.0551
     70 C          14.7840   26.3790  109.6430 C.ar    1  UNL1       -0.0614
     71 C          14.9160   27.7470  109.4140 C.ar    1  UNL1       -0.0617
     72 C          14.5110   28.6570  110.3870 C.ar    1  UNL1       -0.0614
     73 C          13.9760   28.1960  111.5900 C.ar    1  UNL1       -0.0551
     74 O          10.5470   24.1930  112.8250 O.2     1  UNL1       -0.2503
     75 O          11.4980   23.1740  115.4290 O.3     1  UNL1       -0.3619
     76 O           8.4520   25.0580  116.5030 O.3     1  UNL1       -0.3718
     77 O           9.7640   21.6630  116.8980 O.3     1  UNL1       -0.3887
     78 O          11.3560   24.7970  117.0840 O.3     1  UNL1       -0.3415
     79 O          17.2010   24.8200  118.5630 O.3     1  UNL1       -0.3732
     80 O          17.1330   22.2640  117.4040 O.3     1  UNL1       -0.3769
     81 O          12.6060   25.0890  113.0100 O.3     1  UNL1       -0.4563
@<TRIPOS>BOND
     1    23    71    1
     2    22    70    1
     3    71    70   ar
     4    71    72   ar
     5    70    69   ar
     6    24    72    1
     7    72    73   ar
     8    69    21    1
     9    69    68   ar
    10    73    68   ar
    11    73    25    1
    12    68    61    1
    13    74    45    2
    14    81    61    1
    15    81    45    1
    16    61    14    1
    17    61    60    1
    18    12    59    1
    19    45    46    1
    20    34    62    1
    21    13    60    1
    22    15    62    1
    23    60    59    1
    24    60    33    1
    25    59    32    1
    26    59    58    1
    27    31    58    1
    28    62    46    1
    29    62    40    1
    30    30    57    1
    31    46     2    1
    32    46    47    1
    33    58    57    1
    34    58    11    1
    35    16    63    1
    36     3    48    1
    37    75    26    1
    38    75    47    1
    39    57    10    1
    40    57    56    1
    41    29    67    1
    42    47    48    1
    43    47    78    1
    44     9    56    1
    45    48    76    1
    46    48    49    1
    47    63    41    1
    48    63    76    1
    49    63    35    1
    50    39    67    1
    51    56    80    1
    52    56    55    1
    53    67    20    1
    54    67    80    1
    55    77    49    1
    56    77     1    1
    57    78    51    1
    58     8    55    1
    59    49     4    1
    60    49    50    1
    61    55    54    1
    62    55    79    1
    63     6    51    1
    64    27    53    1
    65    51    50    1
    66    51    52    1
    67    38    66    1
    68    54    53    2
    69    54    28    1
    70    53    52    1
    71    79    66    1
    72    50     5    1
    73    50    64    1
    74    42    64    1
    75    52     7    1
    76    52    65    1
    77    66    19    1
    78    66    44    1
    79    64    36    1
    80    64    17    1
    81    43    65    1
    82    65    18    1
    83    65    37    1
