@<TRIPOS>MOLECULE
141.99530
 81 83 0 0 0
SMALL
GASTEIGER

@<TRIPOS>ATOM
      1 H          17.1080   24.1830  113.4060 H       1  UNL1        0.2099
      2 H          13.0210   27.8660  113.4610 H       1  UNL1        0.0465
      3 H          14.0540   25.6480  112.8620 H       1  UNL1        0.0676
      4 H          15.0490   23.4720  113.7350 H       1  UNL1        0.0624
      5 H          16.6940   23.8140  115.6780 H       1  UNL1        0.0349
      6 H          16.7650   26.1540  115.8000 H       1  UNL1        0.0606
      7 H          17.0310   25.0040  117.9820 H       1  UNL1        0.0365
      8 H          13.0460   24.5350  120.3060 H       1  UNL1        0.0666
      9 H          13.1080   25.0830  122.8300 H       1  UNL1        0.0625
     10 H          12.4030   27.3670  122.5890 H       1  UNL1        0.0291
     11 H          14.3170   27.8710  120.7330 H       1  UNL1        0.0266
     12 H          12.5830   26.5660  119.0760 H       1  UNL1        0.0267
     13 H          11.7300   29.4730  118.9400 H       1  UNL1        0.0304
     14 H          10.7400   26.9970  117.4170 H       1  UNL1        0.0785
     15 H          14.3600   29.3610  115.7490 H       1  UNL1        0.0239
     16 H          11.8430   24.9160  112.6960 H       1  UNL1        0.0524
     17 H          15.1500   23.0270  117.3100 H       1  UNL1        0.0234
     18 H          17.5890   27.3990  117.6080 H       1  UNL1        0.0236
     19 H          14.3580   21.4030  121.2020 H       1  UNL1        0.0524
     20 H          15.6880   26.8730  124.3710 H       1  UNL1        0.0524
     21 H          11.1150   30.7380  116.8000 H       1  UNL1        0.0621
     22 H           9.2280   32.1850  116.1350 H       1  UNL1        0.0618
     23 H           6.9390   31.2450  115.9460 H       1  UNL1        0.0618
     24 H           6.5440   28.8430  116.4230 H       1  UNL1        0.0618
     25 H           8.4180   27.3810  117.0860 H       1  UNL1        0.0621
     26 H          16.1800   26.6530  113.6370 H       1  UNL1        0.2129
     27 H          14.0850   25.2530  118.2140 H       1  UNL1        0.0573
     28 H          16.0810   25.1770  120.5390 H       1  UNL1        0.0595
     29 H          13.9900   27.3330  124.1640 H       1  UNL1        0.0524
     30 H          11.7220   26.4090  121.2960 H       1  UNL1        0.0291
     31 H          12.9060   28.8680  121.0100 H       1  UNL1        0.0266
     32 H          13.5810   27.9400  118.5880 H       1  UNL1        0.0267
     33 H          10.6940   28.1910  119.5710 H       1  UNL1        0.0304
     34 H          13.0230   29.9980  114.7750 H       1  UNL1        0.0239
     35 H          12.7580   23.4000  112.9860 H       1  UNL1        0.0524
     36 H          14.5830   22.4430  115.7600 H       1  UNL1        0.0234
     37 H          17.0370   27.1420  119.2620 H       1  UNL1        0.0236
     38 H          13.0630   22.2480  120.3330 H       1  UNL1        0.0524
     39 H          14.4260   25.6480  124.6010 H       1  UNL1        0.0524
     40 H          14.5610   29.6150  114.0060 H       1  UNL1        0.0239
     41 H          11.3010   23.7640  113.9350 H       1  UNL1        0.0524
     42 H          13.7620   23.8060  116.5280 H       1  UNL1        0.0234
     43 H          15.9520   27.8820  118.0760 H       1  UNL1        0.0236
     44 H          14.7640   22.3690  119.7730 H       1  UNL1        0.0524
     45 C          12.1280   27.5670  115.3490 C.2     1  UNL1        0.3158
     46 C          13.3610   27.8520  114.5060 C.3     1  UNL1        0.1098
     47 C          14.4890   26.7940  114.6440 C.3     1  UNL1        0.2096
     48 C          14.1500   25.4430  113.9380 C.3     1  UNL1        0.1386
     49 C          15.3150   24.4500  114.1530 C.3     1  UNL1        0.0913
     50 C          15.7090   24.3010  115.6390 C.3     1  UNL1        0.0117
     51 C          15.8870   25.7040  116.2850 C.3     1  UNL1        0.0730
     52 C          16.2150   25.7190  117.8140 C.3     1  UNL1        0.0011
     53 C          15.0520   25.3290  118.7030 C.2     1  UNL1       -0.0802
     54 C          15.1250   25.0930  120.0250 C.2     1  UNL1       -0.0568
     55 C          13.9580   24.6860  120.8970 C.3     1  UNL1        0.1025
     56 C          13.6220   25.6770  122.0610 C.3     1  UNL1        0.0879
     57 C          12.6640   26.8270  121.6700 C.3     1  UNL1       -0.0239
     58 C          13.2230   27.8660  120.6930 C.3     1  UNL1       -0.0505
     59 C          12.7670   27.6280  119.2510 C.3     1  UNL1       -0.0493
     60 C          11.5050   28.4010  118.8630 C.3     1  UNL1       -0.0114
     61 C          11.0510   28.0500  117.4280 C.3     1  UNL1        0.1280
     62 C          13.8570   29.2860  114.7780 C.3     1  UNL1       -0.0472
     63 C          12.1800   24.2020  113.4540 C.3     1  UNL1        0.0371
     64 C          14.7400   23.3530  116.3500 C.3     1  UNL1       -0.0576
     65 C          16.7210   27.1150  118.2140 C.3     1  UNL1       -0.0566
     66 C          14.1090   22.3120  120.6470 C.3     1  UNL1        0.0373
     67 C          14.7130   26.5270  124.0160 C.3     1  UNL1        0.0369
     68 C           9.9060   28.9530  117.0040 C.ar    1  UNL1       -0.0073
     69 C          10.1160   30.3130  116.7260 C.ar    1  UNL1       -0.0551
     70 C           9.0520   31.1340  116.3490 C.ar    1  UNL1       -0.0614
     71 C           7.7670   30.6060  116.2430 C.ar    1  UNL1       -0.0617
     72 C           7.5450   29.2570  116.5130 C.ar    1  UNL1       -0.0614
     73 C           8.6080   28.4350  116.8910 C.ar    1  UNL1       -0.0551
     74 O          11.1780   26.8940  114.9640 O.2     1  UNL1       -0.2503
     75 O          15.6450   27.3830  114.0110 O.3     1  UNL1       -0.3619
     76 O          12.9500   24.8630  114.4490 O.3     1  UNL1       -0.3718
     77 O          16.4600   24.9120  113.4130 O.3     1  UNL1       -0.3887
     78 O          14.7740   26.5770  116.0310 O.3     1  UNL1       -0.3415
     79 O          14.3060   23.4250  121.5100 O.3     1  UNL1       -0.3732
     80 O          14.8360   26.1940  122.6410 O.3     1  UNL1       -0.3769
     81 O          12.1790   28.2120  116.5470 O.3     1  UNL1       -0.4563
@<TRIPOS>BOND
     1    16    63    1
     2     3    48    1
     3    35    63    1
     4     1    77    1
     5    77    49    1
     6    63    41    1
     7    63    76    1
     8     2    46    1
     9    26    75    1
    10     4    49    1
    11    48    49    1
    12    48    76    1
    13    48    47    1
    14    40    62    1
    15    75    47    1
    16    49    50    1
    17    46    47    1
    18    46    62    1
    19    46    45    1
    20    47    78    1
    21    34    62    1
    22    62    15    1
    23    74    45    2
    24    45    81    1
    25    50     5    1
    26    50    51    1
    27    50    64    1
    28    36    64    1
    29     6    51    1
    30    23    71    1
    31    78    51    1
    32    22    70    1
    33    71    70   ar
    34    71    72   ar
    35    51    52    1
    36    70    69   ar
    37    64    42    1
    38    64    17    1
    39    24    72    1
    40    72    73   ar
    41    81    61    1
    42    69    21    1
    43    69    68   ar
    44    73    68   ar
    45    73    25    1
    46    68    61    1
    47    14    61    1
    48    61    60    1
    49    18    65    1
    50    52     7    1
    51    52    65    1
    52    52    53    1
    53    43    65    1
    54    65    37    1
    55    27    53    1
    56    32    59    1
    57    53    54    2
    58    60    13    1
    59    60    59    1
    60    60    33    1
    61    12    59    1
    62    59    58    1
    63    44    66    1
    64    54    28    1
    65    54    55    1
    66     8    55    1
    67    38    66    1
    68    66    19    1
    69    66    79    1
    70    58    11    1
    71    58    31    1
    72    58    57    1
    73    55    79    1
    74    55    56    1
    75    30    57    1
    76    57    56    1
    77    57    10    1
    78    56    80    1
    79    56     9    1
    80    80    67    1
    81    67    29    1
    82    67    20    1
    83    67    39    1
