@<TRIPOS>MOLECULE
145.39202
 81 83 0 0 0
SMALL
GASTEIGER

@<TRIPOS>ATOM
      1 H          16.8030   23.5800  113.8040 H       1  UNL1        0.2099
      2 H          13.4250   28.3130  112.9970 H       1  UNL1        0.0465
      3 H          15.9270   26.7790  114.5630 H       1  UNL1        0.0676
      4 H          17.3380   25.5010  112.8590 H       1  UNL1        0.0624
      5 H          16.1040   23.7740  111.5550 H       1  UNL1        0.0349
      6 H          14.0130   23.8070  112.8260 H       1  UNL1        0.0606
      7 H          13.2700   24.7110  110.0080 H       1  UNL1        0.0365
      8 H           9.4280   22.5280  111.4570 H       1  UNL1        0.0666
      9 H           8.7130   22.1660  113.7560 H       1  UNL1        0.0625
     10 H           8.7450   24.3840  112.9440 H       1  UNL1        0.0291
     11 H          10.1830   24.7240  115.6020 H       1  UNL1        0.0266
     12 H           7.4950   25.8850  115.0330 H       1  UNL1        0.0267
     13 H           9.4030   26.4380  116.9090 H       1  UNL1        0.0304
     14 H           9.6660   28.5290  114.6640 H       1  UNL1        0.0785
     15 H          13.7930   27.8440  115.9970 H       1  UNL1        0.0239
     16 H          17.1750   28.6380  114.0200 H       1  UNL1        0.0524
     17 H          15.6870   25.1440  109.6050 H       1  UNL1        0.0234
     18 H          14.9740   23.0190  109.6230 H       1  UNL1        0.0236
     19 H           9.6240   19.0800  110.8760 H       1  UNL1        0.0524
     20 H          12.1110   22.3050  115.8650 H       1  UNL1        0.0524
     21 H          11.3630   27.7270  117.9680 H       1  UNL1        0.0621
     22 H          11.7730   29.4500  119.6890 H       1  UNL1        0.0618
     23 H          10.9950   31.7790  119.3340 H       1  UNL1        0.0618
     24 H           9.7980   32.3810  117.2470 H       1  UNL1        0.0618
     25 H           9.3750   30.6740  115.5180 H       1  UNL1        0.0621
     26 H          14.4890   24.8380  114.7990 H       1  UNL1        0.2129
     27 H          11.1980   24.3720  111.0030 H       1  UNL1        0.0573
     28 H          12.2770   21.6560  111.9540 H       1  UNL1        0.0595
     29 H          12.4350   21.7360  114.2330 H       1  UNL1        0.0524
     30 H          10.4510   24.6160  113.2850 H       1  UNL1        0.0291
     31 H           8.5830   23.9870  115.5830 H       1  UNL1        0.0266
     32 H           8.7300   26.4970  113.9580 H       1  UNL1        0.0267
     33 H           8.1430   27.5520  116.3920 H       1  UNL1        0.0304
     34 H          13.1770   29.3370  115.2730 H       1  UNL1        0.0239
     35 H          17.9470   27.6190  112.7640 H       1  UNL1        0.0524
     36 H          16.9720   25.9360  110.5050 H       1  UNL1        0.0234
     37 H          13.4170   22.2410  109.4000 H       1  UNL1        0.0236
     38 H           8.7250   20.5610  110.4920 H       1  UNL1        0.0524
     39 H          11.9970   23.4520  114.5250 H       1  UNL1        0.0524
     40 H          14.8160   28.8150  114.9290 H       1  UNL1        0.0239
     41 H          17.2310   29.1800  112.3320 H       1  UNL1        0.0524
     42 H          15.3140   26.5670  110.5630 H       1  UNL1        0.0234
     43 H          14.3360   21.9760  110.8950 H       1  UNL1        0.0236
     44 H          10.4740   20.4350  110.1090 H       1  UNL1        0.0524
     45 C          11.7660   27.5100  113.9630 C.2     1  UNL1        0.3158
     46 C          13.2780   27.6650  113.8730 C.3     1  UNL1        0.1098
     47 C          14.0150   26.3270  113.6270 C.3     1  UNL1        0.2096
     48 C          15.5690   26.5750  113.5440 C.3     1  UNL1        0.1386
     49 C          16.2750   25.3060  113.0350 C.3     1  UNL1        0.0913
     50 C          15.6370   24.7470  111.7520 C.3     1  UNL1        0.0117
     51 C          14.1290   24.5230  112.0020 C.3     1  UNL1        0.0730
     52 C          13.3570   23.9350  110.7810 C.3     1  UNL1        0.0011
     53 C          11.9300   23.5830  111.1740 C.2     1  UNL1       -0.0802
     54 C          11.5430   22.4300  111.7500 C.2     1  UNL1       -0.0568
     55 C          10.1360   22.0880  112.1730 C.3     1  UNL1        0.1025
     56 C           9.7170   22.5820  113.5970 C.3     1  UNL1        0.0879
     57 C           9.5470   24.1120  113.6420 C.3     1  UNL1       -0.0239
     58 C           9.2470   24.6660  115.0350 C.3     1  UNL1       -0.0505
     59 C           8.5780   26.0400  114.9420 C.3     1  UNL1       -0.0493
     60 C           9.0270   27.0000  116.0460 C.3     1  UNL1       -0.0114
     61 C          10.0690   28.0160  115.5470 C.3     1  UNL1        0.1280
     62 C          13.7970   28.4530  115.0870 C.3     1  UNL1       -0.0472
     63 C          17.1250   28.3050  112.9790 C.3     1  UNL1        0.0371
     64 C          15.9150   25.6540  110.5450 C.3     1  UNL1       -0.0576
     65 C          14.0590   22.7250  110.1450 C.3     1  UNL1       -0.0566
     66 C           9.6910   20.1700  110.8260 C.3     1  UNL1        0.0373
     67 C          11.8150   22.4180  114.8180 C.3     1  UNL1        0.0369
     68 C          10.3340   29.0690  116.6150 C.ar    1  UNL1       -0.0073
     69 C          11.0100   28.7440  117.8020 C.ar    1  UNL1       -0.0551
     70 C          11.2470   29.7150  118.7760 C.ar    1  UNL1       -0.0614
     71 C          10.8110   31.0230  118.5760 C.ar    1  UNL1       -0.0617
     72 C          10.1390   31.3610  117.4030 C.ar    1  UNL1       -0.0614
     73 C           9.9010   30.3900  116.4280 C.ar    1  UNL1       -0.0551
     74 O          11.0180   27.6220  112.9970 O.2     1  UNL1       -0.2503
     75 O          13.7270   25.4460  114.7180 O.3     1  UNL1       -0.3619
     76 O          15.8670   27.7020  112.7040 O.3     1  UNL1       -0.3718
     77 O          16.2070   24.3070  114.0680 O.3     1  UNL1       -0.3887
     78 O          13.5180   25.7650  112.3990 O.3     1  UNL1       -0.3415
     79 O          10.0000   20.6560  112.1250 O.3     1  UNL1       -0.3732
     80 O          10.4510   22.0530  114.7110 O.3     1  UNL1       -0.3769
     81 O          11.3340   27.3960  115.2520 O.3     1  UNL1       -0.4563
@<TRIPOS>BOND
     1    37    65    1
     2    17    64    1
     3    18    65    1
     4     7    52    1
     5    44    66    1
     6    65    52    1
     7    65    43    1
     8    38    66    1
     9    36    64    1
    10    64    42    1
    11    64    50    1
    12    52    53    1
    13    52    51    1
    14    66    19    1
    15    66    79    1
    16    27    53    1
    17    53    54    2
    18     8    55    1
    19     5    50    1
    20    54    28    1
    21    54    55    1
    22    50    51    1
    23    50    49    1
    24    51    78    1
    25    51     6    1
    26    79    55    1
    27    55    56    1
    28    41    63    1
    29    78    47    1
    30    76    63    1
    31    76    48    1
    32    35    63    1
    33     4    49    1
    34    10    57    1
    35    63    16    1
    36    74    45    2
    37     2    46    1
    38    49    48    1
    39    49    77    1
    40    30    57    1
    41    48    47    1
    42    48     3    1
    43    56    57    1
    44    56     9    1
    45    56    80    1
    46    47    46    1
    47    47    75    1
    48    57    58    1
    49     1    77    1
    50    46    45    1
    51    46    62    1
    52    32    59    1
    53    45    81    1
    54    29    67    1
    55    39    67    1
    56    14    61    1
    57    80    67    1
    58    75    26    1
    59    67    20    1
    60    40    62    1
    61    59    12    1
    62    59    58    1
    63    59    60    1
    64    58    31    1
    65    58    11    1
    66    62    34    1
    67    62    15    1
    68    81    61    1
    69    25    73    1
    70    61    60    1
    71    61    68    1
    72    60    33    1
    73    60    13    1
    74    73    68   ar
    75    73    72   ar
    76    68    69   ar
    77    24    72    1
    78    72    71   ar
    79    69    21    1
    80    69    70   ar
    81    71    70   ar
    82    71    23    1
    83    70    22    1
