@<TRIPOS>MOLECULE
135.01002
 81 83 0 0 0
SMALL
GASTEIGER

@<TRIPOS>ATOM
      1 H          18.9040   29.4530  117.4230 H       1  UNL1        0.2099
      2 H          14.6030   27.0540  114.2180 H       1  UNL1        0.0465
      3 H          16.5090   29.6500  115.0060 H       1  UNL1        0.0676
      4 H          18.9360   28.8850  115.2860 H       1  UNL1        0.0624
      5 H          19.2890   27.1650  117.0640 H       1  UNL1        0.0349
      6 H          17.0530   27.1790  118.0620 H       1  UNL1        0.0606
      7 H          17.4120   24.3940  116.8630 H       1  UNL1        0.0365
      8 H          14.9290   21.9310  119.7900 H       1  UNL1        0.0666
      9 H          13.2120   22.4250  118.0850 H       1  UNL1        0.0625
     10 H          11.6170   24.1720  118.2490 H       1  UNL1        0.0291
     11 H          13.0430   25.3870  120.6550 H       1  UNL1        0.0266
     12 H          11.1500   26.8510  120.7960 H       1  UNL1        0.0267
     13 H          13.1220   27.2020  118.9490 H       1  UNL1        0.0304
     14 H          11.3650   26.2410  117.1610 H       1  UNL1        0.0785
     15 H          13.6920   29.7920  115.2500 H       1  UNL1        0.0239
     16 H          16.8780   29.7770  112.7310 H       1  UNL1        0.0524
     17 H          19.3040   25.2580  115.5750 H       1  UNL1        0.0234
     18 H          19.6130   25.0210  117.8190 H       1  UNL1        0.0236
     19 H          15.5380   23.6890  122.6930 H       1  UNL1        0.0524
     20 H          10.7190   20.9550  120.0900 H       1  UNL1        0.0524
     21 H          11.1910   30.0170  117.4210 H       1  UNL1        0.0621
     22 H           9.0930   31.2720  117.0670 H       1  UNL1        0.0618
     23 H           6.9680   30.0600  116.6550 H       1  UNL1        0.0618
     24 H           6.9480   27.5800  116.5970 H       1  UNL1        0.0618
     25 H           9.0330   26.3110  116.9510 H       1  UNL1        0.0621
     26 H          16.1400   29.1330  117.3610 H       1  UNL1        0.2129
     27 H          16.1510   25.3190  119.5360 H       1  UNL1        0.0573
     28 H          15.8020   22.8750  117.7210 H       1  UNL1        0.0595
     29 H          10.4770   22.4980  119.2590 H       1  UNL1        0.0524
     30 H          13.2000   24.9250  118.2280 H       1  UNL1        0.0291
     31 H          11.5610   24.4470  120.7780 H       1  UNL1        0.0266
     32 H          10.3380   26.0880  119.4420 H       1  UNL1        0.0267
     33 H          11.8800   28.3700  119.2940 H       1  UNL1        0.0304
     34 H          12.8540   28.8610  114.0040 H       1  UNL1        0.0239
     35 H          18.5140   29.1540  113.1210 H       1  UNL1        0.0524
     36 H          19.5680   26.6780  114.5720 H       1  UNL1        0.0234
     37 H          18.8200   23.9090  118.9200 H       1  UNL1        0.0236
     38 H          15.0080   22.1050  122.0940 H       1  UNL1        0.0524
     39 H          11.3380   21.1530  118.4390 H       1  UNL1        0.0524
     40 H          14.4970   29.4330  113.7160 H       1  UNL1        0.0239
     41 H          17.5230   28.3560  111.8870 H       1  UNL1        0.0524
     42 H          17.9810   25.8850  114.6020 H       1  UNL1        0.0234
     43 H          18.8410   25.6410  119.2860 H       1  UNL1        0.0236
     44 H          16.5070   22.8610  121.4570 H       1  UNL1        0.0524
     45 C          13.2920   26.9990  115.8380 C.2     1  UNL1        0.3158
     46 C          14.3770   27.7190  115.0640 C.3     1  UNL1        0.1098
     47 C          15.6460   27.8880  115.9350 C.3     1  UNL1        0.2096
     48 C          16.7840   28.5910  115.1120 C.3     1  UNL1        0.1386
     49 C          18.1080   28.5120  115.8970 C.3     1  UNL1        0.0913
     50 C          18.4300   27.0880  116.3860 C.3     1  UNL1        0.0117
     51 C          17.2260   26.5370  117.1880 C.3     1  UNL1        0.0730
     52 C          17.4230   25.0840  117.7170 C.3     1  UNL1        0.0011
     53 C          16.3240   24.6670  118.6810 C.2     1  UNL1       -0.0802
     54 C          15.6270   23.5210  118.5800 C.2     1  UNL1       -0.0568
     55 C          14.6400   22.9730  119.5920 C.3     1  UNL1        0.1025
     56 C          13.1780   22.9360  119.0580 C.3     1  UNL1        0.0879
     57 C          12.5280   24.3170  118.8410 C.3     1  UNL1       -0.0239
     58 C          12.1440   25.0890  120.1080 C.3     1  UNL1       -0.0505
     59 C          11.3250   26.3590  119.8300 C.3     1  UNL1       -0.0493
     60 C          12.0360   27.3550  118.9040 C.3     1  UNL1       -0.0114
     61 C          11.5510   27.2810  117.4440 C.3     1  UNL1        0.1280
     62 C          13.8280   29.0260  114.4800 C.3     1  UNL1       -0.0472
     63 C          17.4920   28.8790  112.8470 C.3     1  UNL1        0.0371
     64 C          18.8360   26.1800  115.2170 C.3     1  UNL1       -0.0576
     65 C          18.7470   24.9090  118.4760 C.3     1  UNL1       -0.0566
     66 C          15.4880   23.0470  121.8100 C.3     1  UNL1        0.0373
     67 C          11.1710   21.6650  119.3920 C.3     1  UNL1        0.0369
     68 C          10.2700   28.0690  117.2180 C.ar    1  UNL1       -0.0073
     69 C          10.2650   29.4730  117.2450 C.ar    1  UNL1       -0.0551
     70 C           9.0820   30.1860  117.0440 C.ar    1  UNL1       -0.0614
     71 C           7.8890   29.5050  116.8120 C.ar    1  UNL1       -0.0617
     72 C           7.8780   28.1120  116.7800 C.ar    1  UNL1       -0.0614
     73 C           9.0610   27.3980  116.9810 C.ar    1  UNL1       -0.0551
     74 O          13.0760   25.7960  115.7370 O.2     1  UNL1       -0.2503
     75 O          15.3170   28.6880  117.0760 O.3     1  UNL1       -0.3619
     76 O          16.9200   28.0040  113.8090 O.3     1  UNL1       -0.3718
     77 O          18.0110   29.3860  117.0350 O.3     1  UNL1       -0.3887
     78 O          16.0540   26.5750  116.3580 O.3     1  UNL1       -0.3415
     79 O          14.7240   23.7130  120.8170 O.3     1  UNL1       -0.3732
     80 O          12.4000   22.1090  119.9500 O.3     1  UNL1       -0.3769
     81 O          12.5730   27.8580  116.6110 O.3     1  UNL1       -0.4563
@<TRIPOS>BOND
     1    41    63    1
     2    16    63    1
     3    63    35    1
     4    63    76    1
     5    40    62    1
     6    76    48    1
     7    34    62    1
     8     2    46    1
     9    62    46    1
    10    62    15    1
    11    36    64    1
    12    42    64    1
    13     3    48    1
    14    46    45    1
    15    46    47    1
    16    48    49    1
    17    48    47    1
    18    64    17    1
    19    64    50    1
    20     4    49    1
    21    74    45    2
    22    45    81    1
    23    49    50    1
    24    49    77    1
    25    47    78    1
    26    47    75    1
    27    78    51    1
    28    50     5    1
    29    50    51    1
    30    24    72    1
    31    81    61    1
    32    23    71    1
    33    72    71   ar
    34    72    73   ar
    35    71    70   ar
    36     7    52    1
    37    25    73    1
    38    73    68   ar
    39    77     1    1
    40    70    22    1
    41    70    69   ar
    42    75    26    1
    43    14    61    1
    44    51    52    1
    45    51     6    1
    46    68    69   ar
    47    68    61    1
    48    69    21    1
    49    61    60    1
    50    52    65    1
    51    52    53    1
    52    28    54    1
    53    18    65    1
    54     9    56    1
    55    30    57    1
    56    10    57    1
    57    39    67    1
    58    65    37    1
    59    65    43    1
    60    54    53    2
    61    54    55    1
    62    53    27    1
    63    57    56    1
    64    57    58    1
    65    60    13    1
    66    60    33    1
    67    60    59    1
    68    56    55    1
    69    56    80    1
    70    29    67    1
    71    67    80    1
    72    67    20    1
    73    32    59    1
    74    55     8    1
    75    55    79    1
    76    59    58    1
    77    59    12    1
    78    58    11    1
    79    58    31    1
    80    79    66    1
    81    44    66    1
    82    66    38    1
    83    66    19    1
