@<TRIPOS>MOLECULE
130.03894
 81 83 0 0 0
SMALL
GASTEIGER

@<TRIPOS>ATOM
      1 H           6.4850   29.6770  111.0890 H       1  UNL1        0.2099
      2 H          12.0090   28.2290  112.5950 H       1  UNL1        0.0465
      3 H           9.2060   27.6280  110.7620 H       1  UNL1        0.0676
      4 H           8.2950   29.8100  109.8060 H       1  UNL1        0.0624
      5 H           7.7860   31.5720  111.4970 H       1  UNL1        0.0349
      6 H           8.0770   30.2510  113.5350 H       1  UNL1        0.0606
      7 H          10.2370   32.4130  113.5920 H       1  UNL1        0.0365
      8 H           9.8450   31.3240  117.9930 H       1  UNL1        0.0666
      9 H           8.1560   29.9810  119.2500 H       1  UNL1        0.0625
     10 H           9.7360   29.1090  117.4160 H       1  UNL1        0.0291
     11 H           7.1550   27.5260  117.8840 H       1  UNL1        0.0266
     12 H           8.5770   26.6870  115.9930 H       1  UNL1        0.0267
     13 H          10.6010   25.9070  118.1530 H       1  UNL1        0.0304
     14 H          12.1680   25.7480  116.1710 H       1  UNL1        0.0785
     15 H          10.2570   25.7430  112.2460 H       1  UNL1        0.0239
     16 H          10.5320   27.5510  108.8830 H       1  UNL1        0.0524
     17 H           9.8470   32.7970  111.2230 H       1  UNL1        0.0234
     18 H           8.2520   33.5020  112.6650 H       1  UNL1        0.0236
     19 H           8.8880   34.3750  119.4360 H       1  UNL1        0.0524
     20 H           4.8030   30.7460  118.6240 H       1  UNL1        0.0524
     21 H           9.0880   24.2810  114.6830 H       1  UNL1        0.0621
     22 H           8.5990   21.8650  114.7490 H       1  UNL1        0.0618
     23 H           9.9690   20.3490  116.1570 H       1  UNL1        0.0618
     24 H          11.8400   21.2650  117.5040 H       1  UNL1        0.0618
     25 H          12.3460   23.6780  117.4500 H       1  UNL1        0.0621
     26 H           7.9390   28.1030  112.8230 H       1  UNL1        0.2129
     27 H          10.3740   31.1750  115.6200 H       1  UNL1        0.0573
     28 H           7.5790   32.3410  116.1690 H       1  UNL1        0.0595
     29 H           6.1420   30.9260  119.7720 H       1  UNL1        0.0524
     30 H           8.3400   29.0720  116.3310 H       1  UNL1        0.0291
     31 H           8.5650   27.5030  118.9450 H       1  UNL1        0.0266
     32 H           8.3930   25.5550  117.3260 H       1  UNL1        0.0267
     33 H          10.8200   27.3870  117.2540 H       1  UNL1        0.0304
     34 H          12.0120   25.6940  112.4680 H       1  UNL1        0.0239
     35 H           9.9480   29.1990  108.4850 H       1  UNL1        0.0524
     36 H           9.7060   31.7550  109.8150 H       1  UNL1        0.0234
     37 H           8.3780   33.9580  114.3530 H       1  UNL1        0.0236
     38 H          10.2400   33.2640  119.1490 H       1  UNL1        0.0524
     39 H           5.9480   32.0670  118.3930 H       1  UNL1        0.0524
     40 H          11.3340   26.4860  111.0540 H       1  UNL1        0.0239
     41 H          11.6840   28.8640  108.5750 H       1  UNL1        0.0524
     42 H          10.8210   31.3370  111.1320 H       1  UNL1        0.0234
     43 H           7.1970   32.7290  113.8520 H       1  UNL1        0.0236
     44 H           9.4330   34.0880  117.7740 H       1  UNL1        0.0524
     45 C          11.3410   27.3600  114.3820 C.2     1  UNL1        0.3158
     46 C          11.1290   27.6460  112.9020 C.3     1  UNL1        0.1098
     47 C           9.8500   28.4870  112.6520 C.3     1  UNL1        0.2096
     48 C           9.5600   28.6080  111.1110 C.3     1  UNL1        0.1386
     49 C           8.4380   29.6360  110.8770 C.3     1  UNL1        0.0913
     50 C           8.7010   30.9730  111.5860 C.3     1  UNL1        0.0117
     51 C           8.9680   30.7130  113.0880 C.3     1  UNL1        0.0730
     52 C           9.2660   32.0090  113.9090 C.3     1  UNL1        0.0011
     53 C           9.4340   31.6770  115.3830 C.2     1  UNL1       -0.0802
     54 C           8.5480   31.8940  116.3720 C.2     1  UNL1       -0.0568
     55 C           8.7750   31.4930  117.8090 C.3     1  UNL1        0.1025
     56 C           8.0270   30.1690  118.1760 C.3     1  UNL1        0.0879
     57 C           8.6470   29.0070  117.3830 C.3     1  UNL1       -0.0239
     58 C           8.2470   27.6230  117.9030 C.3     1  UNL1       -0.0505
     59 C           8.8520   26.5080  117.0390 C.3     1  UNL1       -0.0493
     60 C          10.3760   26.3910  117.1940 C.3     1  UNL1       -0.0114
     61 C          11.0810   25.6520  116.0450 C.3     1  UNL1        0.1280
     62 C          11.1800   26.3200  112.1230 C.3     1  UNL1       -0.0472
     63 C          10.7120   28.6230  109.0120 C.3     1  UNL1        0.0371
     64 C           9.8350   31.7510  110.9030 C.3     1  UNL1       -0.0576
     65 C           8.2120   33.1060  113.6830 C.3     1  UNL1       -0.0566
     66 C           9.2860   33.6210  118.7520 C.3     1  UNL1        0.0373
     67 C           5.8550   31.0290  118.7220 C.3     1  UNL1        0.0369
     68 C          10.7630   24.1640  116.0530 C.ar    1  UNL1       -0.0073
     69 C           9.7040   23.6300  115.3010 C.ar    1  UNL1       -0.0551
     70 C           9.4220   22.2640  115.3370 C.ar    1  UNL1       -0.0614
     71 C          10.1910   21.4130  116.1280 C.ar    1  UNL1       -0.0617
     72 C          11.2410   21.9270  116.8850 C.ar    1  UNL1       -0.0614
     73 C          11.5240   23.2940  116.8490 C.ar    1  UNL1       -0.0551
     74 O          12.0490   28.0400  115.1160 O.2     1  UNL1       -0.2503
     75 O           8.7520   27.8380  113.2990 O.3     1  UNL1       -0.3619
     76 O          10.7520   28.9640  110.3920 O.3     1  UNL1       -0.3718
     77 O           7.2050   29.0780  111.3660 O.3     1  UNL1       -0.3887
     78 O          10.0660   29.7900  113.2300 O.3     1  UNL1       -0.3415
     79 O           8.3460   32.5560  118.6750 O.3     1  UNL1       -0.3732
     80 O           6.6170   30.1700  117.8860 O.3     1  UNL1       -0.3769
     81 O          10.7370   26.1970  114.7570 O.3     1  UNL1       -0.4563
@<TRIPOS>BOND
     1    35    63    1
     2    41    63    1
     3    16    63    1
     4    63    76    1
     5     4    49    1
     6    36    64    1
     7    76    48    1
     8     3    48    1
     9    49    48    1
    10    49    77    1
    11    49    50    1
    12    64    42    1
    13    64    17    1
    14    64    50    1
    15    40    62    1
    16     1    77    1
    17    48    47    1
    18     5    50    1
    19    50    51    1
    20    62    15    1
    21    62    34    1
    22    62    46    1
    23     2    46    1
    24    47    46    1
    25    47    78    1
    26    47    75    1
    27    18    65    1
    28    26    75    1
    29    46    45    1
    30    51    78    1
    31    51     6    1
    32    51    52    1
    33     7    52    1
    34    65    43    1
    35    65    52    1
    36    65    37    1
    37    52    53    1
    38    45    81    1
    39    45    74    2
    40    21    69    1
    41    22    70    1
    42    81    61    1
    43    69    70   ar
    44    69    68   ar
    45    70    71   ar
    46    53    27    1
    47    53    54    2
    48    12    59    1
    49    61    68    1
    50    61    14    1
    51    61    60    1
    52    68    73   ar
    53    71    23    1
    54    71    72   ar
    55    28    54    1
    56    30    57    1
    57    54    55    1
    58    73    72   ar
    59    73    25    1
    60    72    24    1
    61    59    60    1
    62    59    32    1
    63    59    58    1
    64    60    33    1
    65    60    13    1
    66    57    10    1
    67    57    58    1
    68    57    56    1
    69    44    66    1
    70    55     8    1
    71    55    56    1
    72    55    79    1
    73    11    58    1
    74    80    56    1
    75    80    67    1
    76    58    31    1
    77    56     9    1
    78    39    67    1
    79    20    67    1
    80    79    66    1
    81    67    29    1
    82    66    38    1
    83    66    19    1
