@<TRIPOS>MOLECULE
141.09364
 81 83 0 0 0
SMALL
GASTEIGER

@<TRIPOS>ATOM
      1 H          12.2320   30.1660  110.0990 H       1  UNL1        0.2099
      2 H          13.6360   28.4740  115.5530 H       1  UNL1        0.0465
      3 H          14.2630   28.5390  112.3000 H       1  UNL1        0.0676
      4 H          13.8840   30.9010  111.3780 H       1  UNL1        0.0624
      5 H          11.5390   31.7660  111.6620 H       1  UNL1        0.0349
      6 H          10.5050   29.7340  112.5060 H       1  UNL1        0.0606
      7 H          10.3170   31.7850  114.7680 H       1  UNL1        0.0365
      8 H           7.8190   28.0810  115.6170 H       1  UNL1        0.0666
      9 H           5.5280   27.9050  113.7110 H       1  UNL1        0.0625
     10 H           5.5470   25.6520  113.9100 H       1  UNL1        0.0291
     11 H           7.7700   24.8150  113.6700 H       1  UNL1        0.0266
     12 H           8.3380   25.8810  116.4910 H       1  UNL1        0.0267
     13 H           9.9810   24.1770  114.5540 H       1  UNL1        0.0304
     14 H          10.7300   25.6240  117.1430 H       1  UNL1        0.0785
     15 H          13.7920   26.0550  113.6840 H       1  UNL1        0.0239
     16 H          16.3750   29.2060  112.9520 H       1  UNL1        0.0524
     17 H          11.9900   33.0950  113.6250 H       1  UNL1        0.0234
     18 H           9.7700   32.9310  112.6620 H       1  UNL1        0.0236
     19 H           5.4950   29.7550  117.6300 H       1  UNL1        0.0524
     20 H           8.8580   27.7240  111.5550 H       1  UNL1        0.0524
     21 H          12.3340   23.2340  114.6480 H       1  UNL1        0.0621
     22 H          13.8180   21.3910  115.3550 H       1  UNL1        0.0618
     23 H          14.2920   21.0230  117.7630 H       1  UNL1        0.0618
     24 H          13.2740   22.5100  119.4670 H       1  UNL1        0.0618
     25 H          11.7860   24.3520  118.7820 H       1  UNL1        0.0621
     26 H          11.9110   28.0650  111.9020 H       1  UNL1        0.2129
     27 H           9.4940   29.6130  115.4380 H       1  UNL1        0.0573
     28 H           7.1580   30.2870  113.5540 H       1  UNL1        0.0595
     29 H           9.1120   27.7260  113.3000 H       1  UNL1        0.0524
     30 H           5.8330   26.2650  115.5250 H       1  UNL1        0.0291
     31 H           7.0500   24.2380  115.1440 H       1  UNL1        0.0266
     32 H           9.1070   26.4940  115.0300 H       1  UNL1        0.0267
     33 H           9.3420   23.6730  116.1270 H       1  UNL1        0.0304
     34 H          14.4580   26.1180  115.3200 H       1  UNL1        0.0239
     35 H          15.8900   30.8160  112.3310 H       1  UNL1        0.0524
     36 H          13.5440   32.7790  112.8610 H       1  UNL1        0.0234
     37 H           8.2780   32.6010  113.5320 H       1  UNL1        0.0236
     38 H           6.9420   28.7300  117.6180 H       1  UNL1        0.0524
     39 H           8.7280   26.2110  112.4330 H       1  UNL1        0.0524
     40 H          15.0890   27.1940  114.0770 H       1  UNL1        0.0239
     41 H          16.5430   30.6490  113.9690 H       1  UNL1        0.0524
     42 H          13.0670   31.8850  114.3170 H       1  UNL1        0.0234
     43 H           8.7350   31.5940  112.1440 H       1  UNL1        0.0236
     44 H           7.0030   30.4000  116.9610 H       1  UNL1        0.0524
     45 C          12.0210   27.1620  115.6880 C.2     1  UNL1        0.3158
     46 C          13.1360   27.7870  114.8560 C.3     1  UNL1        0.1098
     47 C          12.5720   28.5930  113.6630 C.3     1  UNL1        0.2096
     48 C          13.7180   29.3100  112.8630 C.3     1  UNL1        0.1386
     49 C          13.1000   30.3040  111.8540 C.3     1  UNL1        0.0913
     50 C          12.0480   31.2430  112.4810 C.3     1  UNL1        0.0117
     51 C          11.0040   30.3910  113.2310 C.3     1  UNL1        0.0730
     52 C           9.8760   31.1840  113.9620 C.3     1  UNL1        0.0011
     53 C           8.9810   30.1670  114.6470 C.2     1  UNL1       -0.0802
     54 C           7.7250   29.8000  114.3400 C.2     1  UNL1       -0.0568
     55 C           7.0940   28.5830  114.9720 C.3     1  UNL1        0.1025
     56 C           6.5460   27.5490  113.9280 C.3     1  UNL1        0.0879
     57 C           6.3000   26.1450  114.5390 C.3     1  UNL1       -0.0239
     58 C           7.4550   25.1410  114.6660 C.3     1  UNL1       -0.0505
     59 C           8.6620   25.6080  115.4800 C.3     1  UNL1       -0.0493
     60 C           9.7440   24.5270  115.5660 C.3     1  UNL1       -0.0114
     61 C          11.0170   25.0610  116.2470 C.3     1  UNL1        0.1280
     62 C          14.1740   26.7300  114.4570 C.3     1  UNL1       -0.0472
     63 C          15.9220   30.1680  113.2090 C.3     1  UNL1        0.0371
     64 C          12.7020   32.3020  113.3740 C.3     1  UNL1       -0.0576
     65 C           9.1220   32.1260  113.0200 C.3     1  UNL1       -0.0566
     66 C           6.3940   29.4980  117.0640 C.3     1  UNL1        0.0373
     67 C           8.5260   27.2810  112.4990 C.3     1  UNL1        0.0369
     68 C          11.9370   23.9250  116.6620 C.ar    1  UNL1       -0.0073
     69 C          12.5260   23.0790  115.7080 C.ar    1  UNL1       -0.0551
     70 C          13.3680   22.0390  116.1030 C.ar    1  UNL1       -0.0614
     71 C          13.6350   21.8330  117.4550 C.ar    1  UNL1       -0.0617
     72 C          13.0630   22.6680  118.4120 C.ar    1  UNL1       -0.0614
     73 C          12.2190   23.7090  118.0190 C.ar    1  UNL1       -0.0551
     74 O          11.4760   27.7300  116.6280 O.2     1  UNL1       -0.2503
     75 O          11.8650   27.6900  112.8050 O.3     1  UNL1       -0.3619
     76 O          14.6240   29.9780  113.7550 O.3     1  UNL1       -0.3718
     77 O          12.4730   29.5390  110.8070 O.3     1  UNL1       -0.3887
     78 O          11.6760   29.5710  114.2010 O.3     1  UNL1       -0.3415
     79 O           5.9880   29.0040  115.7930 O.3     1  UNL1       -0.3732
     80 O           7.1380   27.5210  112.6220 O.3     1  UNL1       -0.3769
     81 O          11.7600   25.8780  115.3180 O.3     1  UNL1       -0.4563
@<TRIPOS>BOND
     1     1    77    1
     2    77    49    1
     3     4    49    1
     4    20    67    1
     5     5    50    1
     6    49    50    1
     7    49    48    1
     8    26    75    1
     9    43    65    1
    10     3    48    1
    11    35    63    1
    12    39    67    1
    13    50    51    1
    14    50    64    1
    15    67    80    1
    16    67    29    1
    17     6    51    1
    18    80    56    1
    19    18    65    1
    20    75    47    1
    21    36    64    1
    22    48    47    1
    23    48    76    1
    24    16    63    1
    25    65    37    1
    26    65    52    1
    27    63    76    1
    28    63    41    1
    29    51    52    1
    30    51    78    1
    31    64    17    1
    32    64    42    1
    33    28    54    1
    34    47    78    1
    35    47    46    1
    36    11    58    1
    37    15    62    1
    38     9    56    1
    39    10    57    1
    40    56    57    1
    41    56    55    1
    42    52    53    1
    43    52     7    1
    44    40    62    1
    45    54    53    2
    46    54    55    1
    47    62    46    1
    48    62    34    1
    49    57    58    1
    50    57    30    1
    51    13    60    1
    52    53    27    1
    53    21    69    1
    54    58    31    1
    55    58    59    1
    56    46     2    1
    57    46    45    1
    58    55     8    1
    59    55    79    1
    60    32    59    1
    61    81    45    1
    62    81    61    1
    63    22    70    1
    64    59    60    1
    65    59    12    1
    66    60    33    1
    67    60    61    1
    68    45    74    2
    69    69    70   ar
    70    69    68   ar
    71    79    66    1
    72    70    71   ar
    73    61    68    1
    74    61    14    1
    75    68    73   ar
    76    44    66    1
    77    66    38    1
    78    66    19    1
    79    71    23    1
    80    71    72   ar
    81    73    72   ar
    82    73    25    1
    83    72    24    1
