@<TRIPOS>MOLECULE
137.30837
 81 83 0 0 0
SMALL
GASTEIGER

@<TRIPOS>ATOM
      1 H          12.3850   32.3990  113.9260 H       1  UNL1        0.2099
      2 H          14.9640   27.0460  114.5680 H       1  UNL1        0.0465
      3 H          11.9580   29.1130  113.1550 H       1  UNL1        0.0676
      4 H          12.5060   31.3550  111.9910 H       1  UNL1        0.0624
      5 H          14.5320   32.5350  112.9480 H       1  UNL1        0.0349
      6 H          14.9460   31.0540  114.8090 H       1  UNL1        0.0606
      7 H          17.3550   30.7690  112.9710 H       1  UNL1        0.0365
      8 H          18.8150   28.8080  116.8880 H       1  UNL1        0.0666
      9 H          16.8420   27.3290  116.2530 H       1  UNL1        0.0625
     10 H          15.0350   28.5140  117.5000 H       1  UNL1        0.0291
     11 H          15.3620   25.6440  118.5040 H       1  UNL1        0.0266
     12 H          12.9900   27.5000  118.0010 H       1  UNL1        0.0267
     13 H          11.6630   25.2410  118.4080 H       1  UNL1        0.0304
     14 H          12.1080   24.6000  115.7790 H       1  UNL1        0.0785
     15 H          13.9960   26.6350  111.7290 H       1  UNL1        0.0239
     16 H          11.3710   27.9700  111.2270 H       1  UNL1        0.0524
     17 H          16.0750   31.8150  111.2340 H       1  UNL1        0.0234
     18 H          16.7960   33.1690  113.2180 H       1  UNL1        0.0236
     19 H          18.7800   31.0660  119.5870 H       1  UNL1        0.0524
     20 H          18.7820   25.8810  119.4880 H       1  UNL1        0.0524
     21 H          11.0090   28.1250  116.6690 H       1  UNL1        0.0621
     22 H           8.6390   28.8250  116.5830 H       1  UNL1        0.0618
     23 H           6.8620   27.1660  116.0860 H       1  UNL1        0.0618
     24 H           7.4600   24.7940  115.6770 H       1  UNL1        0.0618
     25 H           9.8160   24.0780  115.7590 H       1  UNL1        0.0621
     26 H          13.0370   29.9740  115.1350 H       1  UNL1        0.2129
     27 H          18.6550   30.0400  114.7600 H       1  UNL1        0.0573
     28 H          16.0950   30.2180  116.4420 H       1  UNL1        0.0595
     29 H          19.1280   27.5710  119.1220 H       1  UNL1        0.0524
     30 H          15.7310   28.0020  119.0310 H       1  UNL1        0.0291
     31 H          14.9480   26.0250  116.8470 H       1  UNL1        0.0266
     32 H          13.3640   26.5030  119.3940 H       1  UNL1        0.0267
     33 H          13.1000   24.4610  117.7960 H       1  UNL1        0.0304
     34 H          15.1050   25.6790  112.6870 H       1  UNL1        0.0239
     35 H          11.4480   29.6780  110.6830 H       1  UNL1        0.0524
     36 H          14.4520   31.6360  110.5750 H       1  UNL1        0.0234
     37 H          18.2440   32.8000  114.1510 H       1  UNL1        0.0236
     38 H          19.8080   30.1170  118.4960 H       1  UNL1        0.0524
     39 H          17.5530   27.0990  119.8470 H       1  UNL1        0.0524
     40 H          15.5970   27.2870  112.1480 H       1  UNL1        0.0239
     41 H          12.2600   28.4010  109.7520 H       1  UNL1        0.0524
     42 H          15.3530   30.2110  111.1230 H       1  UNL1        0.0234
     43 H          16.6890   32.9950  114.9770 H       1  UNL1        0.0236
     44 H          18.7580   31.4200  117.8490 H       1  UNL1        0.0524
     45 C          12.9610   26.5070  114.2560 C.2     1  UNL1        0.3158
     46 C          14.1890   27.2780  113.8210 C.3     1  UNL1        0.1098
     47 C          13.9720   28.8050  113.8650 C.3     1  UNL1        0.2096
     48 C          12.9680   29.3920  112.8250 C.3     1  UNL1        0.1386
     49 C          13.0880   30.9390  112.8210 C.3     1  UNL1        0.0913
     50 C          14.5480   31.4570  112.7410 C.3     1  UNL1        0.0117
     51 C          15.3800   30.7700  113.8430 C.3     1  UNL1        0.0730
     52 C          16.8990   31.1060  113.9110 C.3     1  UNL1        0.0011
     53 C          17.6380   30.3370  115.0100 C.2     1  UNL1       -0.0802
     54 C          17.1090   29.9310  116.1790 C.2     1  UNL1       -0.0568
     55 C          17.7790   29.0230  117.1840 C.3     1  UNL1        0.1025
     56 C          17.0180   27.6580  117.2860 C.3     1  UNL1        0.0879
     57 C          15.6340   27.7300  117.9740 C.3     1  UNL1       -0.0239
     58 C          14.8760   26.3980  117.8730 C.3     1  UNL1       -0.0505
     59 C          13.4020   26.5300  118.2980 C.3     1  UNL1       -0.0493
     60 C          12.5220   25.3930  117.7420 C.3     1  UNL1       -0.0114
     61 C          12.0320   25.5750  116.2780 C.3     1  UNL1        0.1280
     62 C          14.7490   26.7030  112.5180 C.3     1  UNL1       -0.0472
     63 C          11.9980   28.7360  110.7590 C.3     1  UNL1        0.0371
     64 C          15.1370   31.2610  111.3420 C.3     1  UNL1       -0.0576
     65 C          17.1690   32.6010  114.0750 C.3     1  UNL1       -0.0566
     66 C          18.8410   30.6200  118.5910 C.3     1  UNL1        0.0373
     67 C          18.3370   26.8180  119.1400 C.3     1  UNL1        0.0369
     68 C          10.5910   26.0490  116.2250 C.ar    1  UNL1       -0.0073
     69 C          10.2400   27.3860  116.4560 C.ar    1  UNL1       -0.0551
     70 C           8.9020   27.7850  116.4060 C.ar    1  UNL1       -0.0614
     71 C           7.9020   26.8540  116.1280 C.ar    1  UNL1       -0.0617
     72 C           8.2360   25.5220  115.8990 C.ar    1  UNL1       -0.0614
     73 C           9.5720   25.1220  115.9490 C.ar    1  UNL1       -0.0551
     74 O          12.1880   25.9250  113.5110 O.2     1  UNL1       -0.2503
     75 O          13.5520   29.1440  115.1980 O.3     1  UNL1       -0.3619
     76 O          13.2010   28.9090  111.4990 O.3     1  UNL1       -0.3718
     77 O          12.4930   31.4350  114.0350 O.3     1  UNL1       -0.3887
     78 O          15.2840   29.3530  113.6640 O.3     1  UNL1       -0.3415
     79 O          17.7760   29.6860  118.4580 O.3     1  UNL1       -0.3732
     80 O          17.8260   26.5950  117.8350 O.3     1  UNL1       -0.3769
     81 O          12.9170   26.4860  115.6120 O.3     1  UNL1       -0.4563
@<TRIPOS>BOND
     1    41    63    1
     2    36    64    1
     3    35    63    1
     4    63    16    1
     5    63    76    1
     6    42    64    1
     7    17    64    1
     8    64    50    1
     9    76    48    1
    10    15    62    1
    11     4    49    1
    12    40    62    1
    13    62    34    1
    14    62    46    1
    15    50    49    1
    16    50     5    1
    17    50    51    1
    18    49    48    1
    19    49    77    1
    20    48     3    1
    21    48    47    1
    22     7    52    1
    23    18    65    1
    24    74    45    2
    25    78    51    1
    26    78    47    1
    27    46    47    1
    28    46    45    1
    29    46     2    1
    30    51    52    1
    31    51     6    1
    32    47    75    1
    33    52    65    1
    34    52    53    1
    35     1    77    1
    36    65    37    1
    37    65    43    1
    38    45    81    1
    39    27    53    1
    40    53    54    2
    41    26    75    1
    42    81    61    1
    43    24    72    1
    44    25    73    1
    45    14    61    1
    46    72    73   ar
    47    72    71   ar
    48    73    68   ar
    49    23    71    1
    50    71    70   ar
    51    54    28    1
    52    54    55    1
    53    68    61    1
    54    68    69   ar
    55     9    56    1
    56    61    60    1
    57    70    69   ar
    58    70    22    1
    59    69    21    1
    60    31    58    1
    61     8    55    1
    62    55    56    1
    63    55    79    1
    64    56    80    1
    65    56    57    1
    66    10    57    1
    67    60    33    1
    68    60    59    1
    69    60    13    1
    70    80    67    1
    71    44    66    1
    72    58    57    1
    73    58    59    1
    74    58    11    1
    75    57    30    1
    76    12    59    1
    77    59    32    1
    78    79    66    1
    79    38    66    1
    80    66    19    1
    81    29    67    1
    82    67    20    1
    83    67    39    1
