@<TRIPOS>MOLECULE
132.33746
 81 83 0 0 0
SMALL
GASTEIGER

@<TRIPOS>ATOM
      1 H          18.8940   30.2500  115.1900 H       1  UNL1        0.2099
      2 H          13.4700   28.1720  114.2180 H       1  UNL1        0.0465
      3 H          15.6520   30.7150  114.2390 H       1  UNL1        0.0676
      4 H          17.8820   29.9570  113.2510 H       1  UNL1        0.0624
      5 H          18.9470   28.0250  114.4170 H       1  UNL1        0.0349
      6 H          17.4710   27.8580  116.3660 H       1  UNL1        0.0606
      7 H          17.0450   25.2890  114.7720 H       1  UNL1        0.0365
      8 H          15.3410   22.4820  117.8170 H       1  UNL1        0.0666
      9 H          13.9200   24.5860  118.4350 H       1  UNL1        0.0625
     10 H          15.7400   25.8730  119.5880 H       1  UNL1        0.0291
     11 H          14.6150   26.4660  121.6660 H       1  UNL1        0.0266
     12 H          12.3600   26.9860  121.0060 H       1  UNL1        0.0267
     13 H          14.1170   26.9830  118.4960 H       1  UNL1        0.0304
     14 H          11.5660   27.5620  118.2420 H       1  UNL1        0.0785
     15 H          13.3360   30.8520  115.6980 H       1  UNL1        0.0239
     16 H          14.9380   31.1170  112.0800 H       1  UNL1        0.0524
     17 H          18.1630   26.3420  112.8680 H       1  UNL1        0.0234
     18 H          19.4620   25.7940  114.5840 H       1  UNL1        0.0236
     19 H          18.5970   22.0320  119.0540 H       1  UNL1        0.0524
     20 H          13.7350   21.5320  121.0810 H       1  UNL1        0.0524
     21 H          13.5260   30.6570  119.2020 H       1  UNL1        0.0621
     22 H          12.5980   32.4390  120.6380 H       1  UNL1        0.0618
     23 H          10.3460   32.1810  121.6480 H       1  UNL1        0.0618
     24 H           9.0220   30.1290  121.2150 H       1  UNL1        0.0618
     25 H           9.9350   28.3360  119.7870 H       1  UNL1        0.0621
     26 H          16.4390   29.9070  116.4080 H       1  UNL1        0.2129
     27 H          17.5730   25.4890  117.8060 H       1  UNL1        0.0573
     28 H          15.4950   24.0460  116.0800 H       1  UNL1        0.0595
     29 H          15.1570   21.5200  120.0380 H       1  UNL1        0.0524
     30 H          15.8950   24.6130  120.7850 H       1  UNL1        0.0291
     31 H          13.6610   24.9950  121.6580 H       1  UNL1        0.0266
     32 H          12.3450   25.7540  119.7560 H       1  UNL1        0.0267
     33 H          14.1920   28.2040  119.7340 H       1  UNL1        0.0304
     34 H          11.9380   30.0370  114.9870 H       1  UNL1        0.0239
     35 H          16.5120   30.4260  111.5700 H       1  UNL1        0.0524
     36 H          17.9620   27.8860  112.0560 H       1  UNL1        0.0234
     37 H          19.2470   24.5170  115.7660 H       1  UNL1        0.0236
     38 H          17.1750   21.2090  118.3880 H       1  UNL1        0.0524
     39 H          15.0310   22.6890  121.3960 H       1  UNL1        0.0524
     40 H          13.2570   30.5770  113.9510 H       1  UNL1        0.0239
     41 H          15.0000   29.7990  110.8940 H       1  UNL1        0.0524
     42 H          16.5600   27.0500  112.7550 H       1  UNL1        0.0234
     43 H          19.5550   26.1750  116.3080 H       1  UNL1        0.0236
     44 H          18.0680   22.4150  117.4060 H       1  UNL1        0.0524
     45 C          13.0840   28.0400  116.2660 C.2     1  UNL1        0.3158
     46 C          13.7130   28.7770  115.1020 C.3     1  UNL1        0.1098
     47 C          15.2530   28.8450  115.2700 C.3     1  UNL1        0.2096
     48 C          15.8930   29.6540  114.0860 C.3     1  UNL1        0.1386
     49 C          17.4240   29.4950  114.1310 C.3     1  UNL1        0.0913
     50 C          17.8660   28.0250  114.2320 C.3     1  UNL1        0.0117
     51 C          17.1660   27.3520  115.4410 C.3     1  UNL1        0.0730
     52 C          17.5120   25.8400  115.5990 C.3     1  UNL1        0.0011
     53 C          17.0210   25.2300  116.9030 C.2     1  UNL1       -0.0802
     54 C          16.0570   24.2950  116.9780 C.2     1  UNL1       -0.0568
     55 C          15.7220   23.4430  118.1880 C.3     1  UNL1        0.1025
     56 C          14.6240   24.0720  119.0990 C.3     1  UNL1        0.0879
     57 C          15.1750   25.0960  120.1140 C.3     1  UNL1       -0.0239
     58 C          14.1100   25.7520  121.0030 C.3     1  UNL1       -0.0505
     59 C          12.9880   26.4840  120.2620 C.3     1  UNL1       -0.0493
     60 C          13.5080   27.5000  119.2440 C.3     1  UNL1       -0.0114
     61 C          12.3740   28.2490  118.5250 C.3     1  UNL1        0.1280
     62 C          13.0280   30.1380  114.9260 C.3     1  UNL1       -0.0472
     63 C          15.4670   30.2020  111.7970 C.3     1  UNL1        0.0371
     64 C          17.6170   27.2880  112.9070 C.3     1  UNL1       -0.0576
     65 C          19.0260   25.5710  115.5610 C.3     1  UNL1       -0.0566
     66 C          17.7220   22.1560  118.4100 C.3     1  UNL1        0.0373
     67 C          14.4860   22.1700  120.6050 C.3     1  UNL1        0.0369
     68 C          11.8010   29.3610  119.3870 C.ar    1  UNL1       -0.0073
     69 C          12.5370   30.5310  119.6410 C.ar    1  UNL1       -0.0551
     70 C          12.0160   31.5410  120.4500 C.ar    1  UNL1       -0.0614
     71 C          10.7520   31.3960  121.0170 C.ar    1  UNL1       -0.0617
     72 C          10.0080   30.2420  120.7730 C.ar    1  UNL1       -0.0614
     73 C          10.5290   29.2300  119.9630 C.ar    1  UNL1       -0.0551
     74 O          12.7570   26.8590  116.2320 O.2     1  UNL1       -0.2503
     75 O          15.5570   29.4960  116.5090 O.3     1  UNL1       -0.3619
     76 O          15.3620   29.2250  112.8230 O.3     1  UNL1       -0.3718
     77 O          17.9220   30.2130  115.2750 O.3     1  UNL1       -0.3887
     78 O          15.7420   27.4910  115.2970 O.3     1  UNL1       -0.3415
     79 O          16.9110   23.1870  118.9610 O.3     1  UNL1       -0.3732
     80 O          13.8040   23.0740  119.7490 O.3     1  UNL1       -0.3769
     81 O          12.9000   28.8630  117.3350 O.3     1  UNL1       -0.4563
@<TRIPOS>BOND
     1    41    63    1
     2    35    63    1
     3    63    16    1
     4    63    76    1
     5    36    64    1
     6    42    64    1
     7    76    48    1
     8    17    64    1
     9    64    50    1
    10     4    49    1
    11    40    62    1
    12    48    49    1
    13    48     3    1
    14    48    47    1
    15    49    50    1
    16    49    77    1
    17     2    46    1
    18    50     5    1
    19    50    51    1
    20    18    65    1
    21     7    52    1
    22    62    34    1
    23    62    46    1
    24    62    15    1
    25    46    47    1
    26    46    45    1
    27     1    77    1
    28    47    78    1
    29    47    75    1
    30    78    51    1
    31    51    52    1
    32    51     6    1
    33    65    52    1
    34    65    37    1
    35    65    43    1
    36    52    53    1
    37    28    54    1
    38    74    45    2
    39    45    81    1
    40    26    75    1
    41    53    54    2
    42    53    27    1
    43    54    55    1
    44    81    61    1
    45    44    66    1
    46     8    55    1
    47    55    79    1
    48    55    56    1
    49    14    61    1
    50    38    66    1
    51    66    79    1
    52    66    19    1
    53     9    56    1
    54    13    60    1
    55    61    60    1
    56    61    68    1
    57    56    80    1
    58    56    57    1
    59    21    69    1
    60    60    33    1
    61    60    59    1
    62    68    69   ar
    63    68    73   ar
    64    10    57    1
    65    69    70   ar
    66    80    67    1
    67    32    59    1
    68    25    73    1
    69    73    72   ar
    70    29    67    1
    71    57    30    1
    72    57    58    1
    73    59    58    1
    74    59    12    1
    75    70    22    1
    76    70    71   ar
    77    67    20    1
    78    67    39    1
    79    72    71   ar
    80    72    24    1
    81    58    31    1
    82    58    11    1
    83    71    23    1
