@<TRIPOS>MOLECULE
140.70361
 81 83 0 0 0
SMALL
GASTEIGER

@<TRIPOS>ATOM
      1 H          16.8930   30.3370  115.4850 H       1  UNL1        0.2099
      2 H          13.1740   26.4260  112.9590 H       1  UNL1        0.0465
      3 H          15.0820   29.3430  112.7580 H       1  UNL1        0.0676
      4 H          17.3830   29.0010  113.7860 H       1  UNL1        0.0624
      5 H          17.3880   28.1360  116.1170 H       1  UNL1        0.0349
      6 H          14.9950   28.3330  116.6240 H       1  UNL1        0.0606
      7 H          15.6670   25.3580  116.7080 H       1  UNL1        0.0365
      8 H          12.4340   25.2450  119.8640 H       1  UNL1        0.0666
      9 H          10.9010   27.0070  120.8930 H       1  UNL1        0.0625
     10 H          10.5900   25.9260  118.6560 H       1  UNL1        0.0291
     11 H           9.7850   28.8750  118.5960 H       1  UNL1        0.0266
     12 H           7.8960   28.1300  117.2880 H       1  UNL1        0.0267
     13 H           8.8950   28.0400  115.2760 H       1  UNL1        0.0304
     14 H          10.5500   25.7790  116.4150 H       1  UNL1        0.0785
     15 H          12.6490   29.3060  112.0460 H       1  UNL1        0.0239
     16 H          16.0690   28.6140  110.8190 H       1  UNL1        0.0524
     17 H          17.7440   25.8190  115.5280 H       1  UNL1        0.0234
     18 H          17.6460   26.4340  117.6310 H       1  UNL1        0.0236
     19 H          14.2990   25.0320  122.8270 H       1  UNL1        0.0524
     20 H          12.4110   30.1310  121.4090 H       1  UNL1        0.0524
     21 H           8.4970   26.8480  113.3990 H       1  UNL1        0.0621
     22 H           7.0840   25.2480  112.1850 H       1  UNL1        0.0618
     23 H           7.0960   22.8430  112.7950 H       1  UNL1        0.0618
     24 H           8.5510   22.0450  114.6390 H       1  UNL1        0.0618
     25 H           9.9770   23.6300  115.8710 H       1  UNL1        0.0621
     26 H          14.2430   29.7910  115.0290 H       1  UNL1        0.2129
     27 H          13.5220   25.3840  117.5950 H       1  UNL1        0.0573
     28 H          14.6200   27.3770  119.6640 H       1  UNL1        0.0595
     29 H          11.7120   28.7030  122.1950 H       1  UNL1        0.0524
     30 H          11.5020   27.2590  117.9150 H       1  UNL1        0.0291
     31 H           8.9040   27.6260  119.4700 H       1  UNL1        0.0266
     32 H           8.3610   26.4400  117.3980 H       1  UNL1        0.0267
     33 H          10.3380   28.4100  116.1880 H       1  UNL1        0.0304
     34 H          11.9190   27.8710  111.3140 H       1  UNL1        0.0239
     35 H          17.5250   28.1590  111.7620 H       1  UNL1        0.0524
     36 H          18.1420   26.7490  114.0930 H       1  UNL1        0.0234
     37 H          16.7000   25.8470  118.9800 H       1  UNL1        0.0236
     38 H          13.3450   24.1190  121.6420 H       1  UNL1        0.0524
     39 H          13.4070   28.6860  121.5920 H       1  UNL1        0.0524
     40 H          13.6510   28.0970  111.2220 H       1  UNL1        0.0239
     41 H          16.7210   26.9670  110.7300 H       1  UNL1        0.0524
     42 H          16.5990   25.8760  114.2000 H       1  UNL1        0.0234
     43 H          16.6760   27.5740  118.5660 H       1  UNL1        0.0236
     44 H          14.8820   24.9090  121.1570 H       1  UNL1        0.0524
     45 C          11.5710   27.4770  113.8640 C.2     1  UNL1        0.3158
     46 C          12.9420   27.4700  113.2070 C.3     1  UNL1        0.1098
     47 C          14.0320   28.0490  114.1560 C.3     1  UNL1        0.2096
     48 C          15.3220   28.4480  113.3490 C.3     1  UNL1        0.1386
     49 C          16.4510   28.8140  114.3280 C.3     1  UNL1        0.0913
     50 C          16.6790   27.7260  115.3870 C.3     1  UNL1        0.0117
     51 C          15.3440   27.4240  116.1160 C.3     1  UNL1        0.0730
     52 C          15.4900   26.3180  117.2130 C.3     1  UNL1        0.0011
     53 C          14.2220   26.0970  118.0290 C.2     1  UNL1       -0.0802
     54 C          13.9520   26.6340  119.2350 C.2     1  UNL1       -0.0568
     55 C          12.7970   26.2470  120.1300 C.3     1  UNL1        0.1025
     56 C          11.5840   27.2250  120.0620 C.3     1  UNL1        0.0879
     57 C          10.8360   26.9920  118.7420 C.3     1  UNL1       -0.0239
     58 C           9.5490   27.8040  118.6010 C.3     1  UNL1       -0.0505
     59 C           8.7620   27.4580  117.3270 C.3     1  UNL1       -0.0493
     60 C           9.5750   27.6370  116.0350 C.3     1  UNL1       -0.0114
     61 C          10.2310   26.3280  115.5250 C.3     1  UNL1        0.1280
     62 C          12.7880   28.2330  111.8770 C.3     1  UNL1       -0.0472
     63 C          16.5540   27.8190  111.3940 C.3     1  UNL1        0.0371
     64 C          17.3200   26.4760  114.7630 C.3     1  UNL1       -0.0576
     65 C          16.6920   26.5620  118.1480 C.3     1  UNL1       -0.0566
     66 C          13.9870   24.9940  121.7790 C.3     1  UNL1        0.0373
     67 C          12.3900   29.0380  121.4030 C.3     1  UNL1        0.0369
     68 C           9.3310   25.3730  114.7540 C.ar    1  UNL1       -0.0073
     69 C           8.5130   25.8020  113.6990 C.ar    1  UNL1       -0.0551
     70 C           7.7110   24.8960  113.0010 C.ar    1  UNL1       -0.0614
     71 C           7.7190   23.5460  113.3410 C.ar    1  UNL1       -0.0617
     72 C           8.5350   23.0990  114.3770 C.ar    1  UNL1       -0.0614
     73 C           9.3380   24.0040  115.0740 C.ar    1  UNL1       -0.0551
     74 O          10.6500   28.2080  113.5170 O.2     1  UNL1       -0.2503
     75 O          13.4910   29.2100  114.7970 O.3     1  UNL1       -0.3619
     76 O          15.7230   27.3880  112.4640 O.3     1  UNL1       -0.3718
     77 O          16.1080   30.0470  114.9840 O.3     1  UNL1       -0.3887
     78 O          14.3450   27.0400  115.1480 O.3     1  UNL1       -0.3415
     79 O          13.2710   26.1880  121.4890 O.3     1  UNL1       -0.3732
     80 O          11.9380   28.6170  120.1250 O.3     1  UNL1       -0.3769
     81 O          11.4780   26.5160  114.8160 O.3     1  UNL1       -0.4563
@<TRIPOS>BOND
     1    41    63    1
     2    16    63    1
     3    40    62    1
     4    34    62    1
     5    63    35    1
     6    63    76    1
     7    62    15    1
     8    62    46    1
     9    22    70    1
    10    76    48    1
    11     3    48    1
    12    23    71    1
    13     2    46    1
    14    70    71   ar
    15    70    69   ar
    16    46    45    1
    17    46    47    1
    18    71    72   ar
    19    48    47    1
    20    48    49    1
    21    21    69    1
    22    74    45    2
    23    69    68   ar
    24     4    49    1
    25    45    81    1
    26    36    64    1
    27    47    75    1
    28    47    78    1
    29    42    64    1
    30    49    77    1
    31    49    50    1
    32    72    24    1
    33    72    73   ar
    34    68    73   ar
    35    68    61    1
    36    64    50    1
    37    64    17    1
    38    75    26    1
    39    81    61    1
    40    77     1    1
    41    73    25    1
    42    78    51    1
    43    13    60    1
    44    50    51    1
    45    50     5    1
    46    61    60    1
    47    61    14    1
    48    60    33    1
    49    60    59    1
    50    51     6    1
    51    51    52    1
    52     7    52    1
    53    52    53    1
    54    52    65    1
    55    12    59    1
    56    59    32    1
    57    59    58    1
    58    27    53    1
    59    18    65    1
    60    30    57    1
    61    53    54    2
    62    65    43    1
    63    65    37    1
    64    11    58    1
    65    58    57    1
    66    58    31    1
    67    10    57    1
    68    57    56    1
    69    54    28    1
    70    54    55    1
    71     8    55    1
    72    56    80    1
    73    56    55    1
    74    56     9    1
    75    80    67    1
    76    55    79    1
    77    44    66    1
    78    67    20    1
    79    67    39    1
    80    67    29    1
    81    79    66    1
    82    38    66    1
    83    66    19    1
