@<TRIPOS>MOLECULE
135.12462
 81 83 0 0 0
SMALL
GASTEIGER

@<TRIPOS>ATOM
      1 H          17.6300   31.0240  116.2520 H       1  UNL1        0.2099
      2 H          13.8890   27.1300  113.9320 H       1  UNL1        0.0465
      3 H          15.4680   30.0210  113.8020 H       1  UNL1        0.0676
      4 H          17.9270   29.7570  114.4580 H       1  UNL1        0.0624
      5 H          18.2930   28.8560  116.7760 H       1  UNL1        0.0349
      6 H          15.9990   28.8210  117.6020 H       1  UNL1        0.0606
      7 H          16.9340   25.9200  117.3720 H       1  UNL1        0.0365
      8 H          13.2400   25.3870  120.0380 H       1  UNL1        0.0666
      9 H          12.7940   26.0180  122.5120 H       1  UNL1        0.0625
     10 H          11.7610   28.1520  122.0180 H       1  UNL1        0.0291
     11 H          13.8120   28.8190  120.3310 H       1  UNL1        0.0266
     12 H          13.1760   28.7860  118.1120 H       1  UNL1        0.0267
     13 H          10.9690   29.6990  118.2300 H       1  UNL1        0.0304
     14 H          10.6890   26.8850  117.0380 H       1  UNL1        0.0785
     15 H          12.5770   29.8990  113.9990 H       1  UNL1        0.0239
     16 H          16.0110   29.3560  111.6560 H       1  UNL1        0.0524
     17 H          18.7510   26.6010  116.0630 H       1  UNL1        0.0234
     18 H          18.7500   27.2890  118.3330 H       1  UNL1        0.0236
     19 H          14.9200   22.5900  121.3380 H       1  UNL1        0.0524
     20 H          14.7210   28.3020  124.3170 H       1  UNL1        0.0524
     21 H           9.9230   30.4520  115.9860 H       1  UNL1        0.0621
     22 H           7.6770   31.1550  115.2340 H       1  UNL1        0.0618
     23 H           5.7940   29.5390  115.2470 H       1  UNL1        0.0618
     24 H           6.1650   27.2110  116.0170 H       1  UNL1        0.0618
     25 H           8.3990   26.4920  116.7750 H       1  UNL1        0.0621
     26 H          15.0000   30.3290  116.1870 H       1  UNL1        0.2129
     27 H          14.6200   25.9340  118.0800 H       1  UNL1        0.0573
     28 H          15.9710   26.6870  120.7340 H       1  UNL1        0.0595
     29 H          13.0110   28.3760  123.8610 H       1  UNL1        0.0524
     30 H          11.4350   26.9940  120.7480 H       1  UNL1        0.0291
     31 H          12.2530   29.6110  120.4010 H       1  UNL1        0.0266
     32 H          12.6350   27.1840  118.6000 H       1  UNL1        0.0267
     33 H          10.3060   28.2750  119.0290 H       1  UNL1        0.0304
     34 H          11.9530   28.5060  113.1110 H       1  UNL1        0.0239
     35 H          17.6650   29.1580  112.3210 H       1  UNL1        0.0524
     36 H          18.9180   27.6070  114.6320 H       1  UNL1        0.0234
     37 H          18.0300   26.3030  119.5890 H       1  UNL1        0.0236
     38 H          13.6600   23.1480  120.2210 H       1  UNL1        0.0524
     39 H          13.7350   26.8320  124.4190 H       1  UNL1        0.0524
     40 H          13.5220   29.1900  112.6820 H       1  UNL1        0.0239
     41 H          16.8940   27.8330  111.4320 H       1  UNL1        0.0524
     42 H          17.4660   26.6130  114.8590 H       1  UNL1        0.0234
     43 H          17.6300   28.0310  119.4830 H       1  UNL1        0.0236
     44 H          15.3830   23.5590  119.9290 H       1  UNL1        0.0524
     45 C          12.5280   27.4310  115.4850 C.2     1  UNL1        0.3158
     46 C          13.5420   27.9990  114.5080 C.3     1  UNL1        0.1098
     47 C          14.7340   28.6140  115.2790 C.3     1  UNL1        0.2096
     48 C          15.8470   29.1190  114.3030 C.3     1  UNL1        0.1386
     49 C          17.0950   29.5080  115.1250 C.3     1  UNL1        0.0913
     50 C          17.5360   28.4130  116.1160 C.3     1  UNL1        0.0117
     51 C          16.3320   27.9730  116.9900 C.3     1  UNL1        0.0730
     52 C          16.6470   26.7960  117.9700 C.3     1  UNL1        0.0011
     53 C          15.4030   26.3370  118.7260 C.2     1  UNL1       -0.0802
     54 C          15.2060   26.3150  120.0570 C.2     1  UNL1       -0.0568
     55 C          13.9980   25.7280  120.7540 C.3     1  UNL1        0.1025
     56 C          13.3050   26.6720  121.7920 C.3     1  UNL1        0.0879
     57 C          12.2310   27.6040  121.1930 C.3     1  UNL1       -0.0239
     58 C          12.7390   28.6490  120.1960 C.3     1  UNL1       -0.0505
     59 C          12.4610   28.2530  118.7440 C.3     1  UNL1       -0.0493
     60 C          11.0420   28.6050  118.2850 C.3     1  UNL1       -0.0114
     61 C          10.7010   27.9760  116.9210 C.3     1  UNL1        0.1280
     62 C          12.8630   28.9550  113.5230 C.3     1  UNL1       -0.0472
     63 C          16.7130   28.6590  112.1250 C.3     1  UNL1        0.0371
     64 C          18.1970   27.2440  115.3720 C.3     1  UNL1       -0.0576
     65 C          17.8260   27.1270  118.8960 C.3     1  UNL1       -0.0566
     66 C          14.6120   23.4150  120.6910 C.3     1  UNL1        0.0373
     67 C          13.9050   27.7480  123.8450 C.3     1  UNL1        0.0369
     68 C           9.3300   28.4210  116.4420 C.ar    1  UNL1       -0.0073
     69 C           9.1040   29.7350  116.0010 C.ar    1  UNL1       -0.0551
     70 C           7.8370   30.1350  115.5740 C.ar    1  UNL1       -0.0614
     71 C           6.7800   29.2280  115.5810 C.ar    1  UNL1       -0.0617
     72 C           6.9890   27.9200  116.0140 C.ar    1  UNL1       -0.0614
     73 C           8.2550   27.5180  116.4430 C.ar    1  UNL1       -0.0551
     74 O          12.4930   26.2490  115.8130 O.2     1  UNL1       -0.2503
     75 O          14.2490   29.7160  116.0530 O.3     1  UNL1       -0.3619
     76 O          16.1590   28.1230  113.3190 O.3     1  UNL1       -0.3718
     77 O          16.7930   30.7050  115.8650 O.3     1  UNL1       -0.3887
     78 O          15.2500   27.5810  116.1330 O.3     1  UNL1       -0.3415
     79 O          14.4630   24.5770  121.4980 O.3     1  UNL1       -0.3732
     80 O          14.2910   27.4390  122.5140 O.3     1  UNL1       -0.3769
     81 O          11.6690   28.3840  115.9390 O.3     1  UNL1       -0.4563
@<TRIPOS>BOND
     1    41    63    1
     2    16    63    1
     3    63    35    1
     4    63    76    1
     5    40    62    1
     6    34    62    1
     7    76    48    1
     8    62    15    1
     9    62    46    1
    10     3    48    1
    11     2    46    1
    12    48    49    1
    13    48    47    1
    14     4    49    1
    15    46    47    1
    16    46    45    1
    17    36    64    1
    18    42    64    1
    19    49    77    1
    20    49    50    1
    21    22    70    1
    22    23    71    1
    23    47    75    1
    24    47    78    1
    25    64    17    1
    26    64    50    1
    27    45    74    2
    28    45    81    1
    29    70    71   ar
    30    70    69   ar
    31    71    72   ar
    32    77     1    1
    33    81    61    1
    34    21    69    1
    35    69    68   ar
    36    72    24    1
    37    72    73   ar
    38    75    26    1
    39    50     5    1
    40    50    51    1
    41    78    51    1
    42    68    73   ar
    43    68    61    1
    44    73    25    1
    45    61    14    1
    46    61    60    1
    47    51     6    1
    48    51    52    1
    49     7    52    1
    50    52    53    1
    51    52    65    1
    52    27    53    1
    53    12    59    1
    54    13    60    1
    55    60    59    1
    56    60    33    1
    57    18    65    1
    58    32    59    1
    59    53    54    2
    60    59    58    1
    61    65    43    1
    62    65    37    1
    63    44    66    1
    64     8    55    1
    65    54    28    1
    66    54    55    1
    67    58    11    1
    68    58    31    1
    69    58    57    1
    70    38    66    1
    71    66    19    1
    72    66    79    1
    73    30    57    1
    74    55    79    1
    75    55    56    1
    76    57    56    1
    77    57    10    1
    78    56     9    1
    79    56    80    1
    80    80    67    1
    81    67    29    1
    82    67    20    1
    83    67    39    1
