@<TRIPOS>MOLECULE
148.29052
 81 83 0 0 0
SMALL
GASTEIGER

@<TRIPOS>ATOM
      1 H          18.3400   24.5800  115.0210 H       1  UNL1        0.2099
      2 H          13.4620   27.5510  113.5760 H       1  UNL1        0.0465
      3 H          16.5650   27.4690  114.6360 H       1  UNL1        0.0676
      4 H          18.0100   25.8700  113.2580 H       1  UNL1        0.0624
      5 H          17.2160   23.4660  113.3160 H       1  UNL1        0.0349
      6 H          15.3700   23.6510  114.8910 H       1  UNL1        0.0606
      7 H          14.3120   22.9140  112.1200 H       1  UNL1        0.0365
      8 H          10.4650   22.4810  114.3780 H       1  UNL1        0.0666
      9 H          11.3320   21.2950  117.0480 H       1  UNL1        0.0625
     10 H           9.3320   21.7660  117.9240 H       1  UNL1        0.0291
     11 H           9.2630   24.1900  117.8290 H       1  UNL1        0.0266
     12 H           8.6990   23.7590  114.8870 H       1  UNL1        0.0267
     13 H          10.1450   25.7170  116.5720 H       1  UNL1        0.0304
     14 H          11.0010   24.6790  114.4080 H       1  UNL1        0.0785
     15 H          14.3560   28.3400  116.4070 H       1  UNL1        0.0239
     16 H          16.8620   29.1130  113.0330 H       1  UNL1        0.0524
     17 H          16.2280   23.5430  111.1360 H       1  UNL1        0.0234
     18 H          16.1860   21.4860  112.7850 H       1  UNL1        0.0236
     19 H           9.6000   19.2390  113.3340 H       1  UNL1        0.0524
     20 H          12.5660   24.3850  118.1830 H       1  UNL1        0.0524
     21 H           8.8850   27.7150  113.5490 H       1  UNL1        0.0621
     22 H           7.5560   27.8810  111.4770 H       1  UNL1        0.0618
     23 H           7.5480   26.0120  109.8450 H       1  UNL1        0.0618
     24 H           8.8840   23.9710  110.2960 H       1  UNL1        0.0618
     25 H          10.2100   23.7840  112.3600 H       1  UNL1        0.0621
     26 H          16.0060   25.5220  116.0180 H       1  UNL1        0.2129
     27 H          12.3740   23.3990  113.3280 H       1  UNL1        0.0573
     28 H          13.0650   20.9000  114.9660 H       1  UNL1        0.0595
     29 H          11.3450   23.2580  118.8090 H       1  UNL1        0.0524
     30 H           8.7530   21.5790  116.2940 H       1  UNL1        0.0291
     31 H           7.7380   23.4480  117.4440 H       1  UNL1        0.0266
     32 H           7.5820   24.8060  115.7180 H       1  UNL1        0.0267
     33 H           8.9430   26.5630  115.6670 H       1  UNL1        0.0304
     34 H          13.1990   29.2330  115.4180 H       1  UNL1        0.0239
     35 H          17.8220   27.8440  112.2050 H       1  UNL1        0.0524
     36 H          17.2900   24.9390  111.2230 H       1  UNL1        0.0234
     37 H          14.6890   20.5710  112.9170 H       1  UNL1        0.0236
     38 H           9.2320   20.9660  113.1580 H       1  UNL1        0.0524
     39 H          12.8940   22.6430  118.1510 H       1  UNL1        0.0524
     40 H          14.8770   29.0900  114.8870 H       1  UNL1        0.0239
     41 H          16.5410   28.7090  111.3350 H       1  UNL1        0.0524
     42 H          15.5360   25.1480  111.3890 H       1  UNL1        0.0234
     43 H          15.4700   21.2040  114.3790 H       1  UNL1        0.0236
     44 H          10.8520   20.3330  112.7160 H       1  UNL1        0.0524
     45 C          12.4330   26.7040  115.2290 C.2     1  UNL1        0.3158
     46 C          13.6980   27.2770  114.6130 C.3     1  UNL1        0.1098
     47 C          14.8090   26.1960  114.6120 C.3     1  UNL1        0.2096
     48 C          16.1290   26.7240  113.9570 C.3     1  UNL1        0.1386
     49 C          17.1270   25.5500  113.8200 C.3     1  UNL1        0.0913
     50 C          16.5170   24.2970  113.1600 C.3     1  UNL1        0.0117
     51 C          15.1750   23.9310  113.8470 C.3     1  UNL1        0.0730
     52 C          14.4330   22.7190  113.1930 C.3     1  UNL1        0.0011
     53 C          13.0110   22.6020  113.7050 C.2     1  UNL1       -0.0802
     54 C          12.4670   21.6990  114.5390 C.2     1  UNL1       -0.0568
     55 C          11.0120   21.7440  114.9720 C.3     1  UNL1        0.1025
     56 C          10.8690   22.1140  116.4770 C.3     1  UNL1        0.0879
     57 C           9.3890   22.2140  116.9220 C.3     1  UNL1       -0.0239
     58 C           8.7520   23.6120  117.0520 C.3     1  UNL1       -0.0505
     59 C           8.6090   24.4190  115.7530 C.3     1  UNL1       -0.0493
     60 C           9.5460   25.6460  115.6630 C.3     1  UNL1       -0.0114
     61 C          10.4490   25.6190  114.4130 C.3     1  UNL1        0.1280
     62 C          14.0580   28.5530  115.3750 C.3     1  UNL1       -0.0472
     63 C          16.8320   28.2970  112.3050 C.3     1  UNL1        0.0371
     64 C          16.3790   24.5000  111.6450 C.3     1  UNL1       -0.0576
     65 C          15.2390   21.4230  113.3310 C.3     1  UNL1       -0.0566
     66 C          10.0160   20.2470  113.4160 C.3     1  UNL1        0.0373
     67 C          12.1120   23.4010  118.0430 C.3     1  UNL1        0.0369
     68 C           9.6330   25.7270  113.1280 C.ar    1  UNL1       -0.0073
     69 C           8.8810   26.8810  112.8500 C.ar    1  UNL1       -0.0551
     70 C           8.1320   26.9810  111.6760 C.ar    1  UNL1       -0.0614
     71 C           8.1290   25.9330  110.7600 C.ar    1  UNL1       -0.0617
     72 C           8.8790   24.7870  111.0140 C.ar    1  UNL1       -0.0614
     73 C           9.6280   24.6850  112.1890 C.ar    1  UNL1       -0.0551
     74 O          12.3110   26.3810  116.4010 O.2     1  UNL1       -0.2503
     75 O          15.0750   25.8140  115.9660 O.3     1  UNL1       -0.3619
     76 O          15.8620   27.3300  112.6840 O.3     1  UNL1       -0.3718
     77 O          17.5910   25.1940  115.1360 O.3     1  UNL1       -0.3887
     78 O          14.3130   25.0810  113.8460 O.3     1  UNL1       -0.3415
     79 O          10.4470   20.4410  114.7570 O.3     1  UNL1       -0.3732
     80 O          11.5490   23.3410  116.7410 O.3     1  UNL1       -0.3769
     81 O          11.4330   26.6680  114.3060 O.3     1  UNL1       -0.4563
@<TRIPOS>BOND
     1    23    71    1
     2    24    72    1
     3    71    72   ar
     4    71    70   ar
     5    72    73   ar
     6    17    64    1
     7    36    64    1
     8    41    63    1
     9    42    64    1
    10    22    70    1
    11    64    50    1
    12    70    69   ar
    13     7    52    1
    14    73    25    1
    15    73    68   ar
    16    35    63    1
    17    63    76    1
    18    63    16    1
    19    76    48    1
    20    44    66    1
    21    18    65    1
    22    69    68   ar
    23    69    21    1
    24    37    65    1
    25    68    61    1
    26    38    66    1
    27    50     5    1
    28    50    49    1
    29    50    51    1
    30    52    65    1
    31    52    53    1
    32    52    51    1
    33     4    49    1
    34    27    53    1
    35    65    43    1
    36    19    66    1
    37    66    79    1
    38     2    46    1
    39    53    54    2
    40    49    48    1
    41    49    77    1
    42    78    51    1
    43    78    47    1
    44    51     6    1
    45    48    47    1
    46    48     3    1
    47    81    61    1
    48    81    45    1
    49     8    55    1
    50    14    61    1
    51    61    60    1
    52    54    28    1
    53    54    55    1
    54    47    46    1
    55    47    75    1
    56    46    45    1
    57    46    62    1
    58    79    55    1
    59    40    62    1
    60    12    59    1
    61    55    56    1
    62     1    77    1
    63    45    74    2
    64    62    34    1
    65    62    15    1
    66    60    33    1
    67    60    59    1
    68    60    13    1
    69    32    59    1
    70    59    58    1
    71    75    26    1
    72    30    57    1
    73    56    80    1
    74    56    57    1
    75    56     9    1
    76    80    67    1
    77    57    58    1
    78    57    10    1
    79    58    31    1
    80    58    11    1
    81    67    39    1
    82    67    20    1
    83    67    29    1
