@<TRIPOS>MOLECULE
138.86100
 81 83 0 0 0
SMALL
GASTEIGER

@<TRIPOS>ATOM
      1 H          12.3850   32.0590  111.3950 H       1  UNL1        0.2099
      2 H          14.5400   27.8910  114.9430 H       1  UNL1        0.0465
      3 H          13.9570   29.0720  111.8910 H       1  UNL1        0.0676
      4 H          14.5060   31.5690  111.7990 H       1  UNL1        0.0624
      5 H          13.2070   32.9850  113.3900 H       1  UNL1        0.0349
      6 H          11.6080   31.3040  114.1890 H       1  UNL1        0.0606
      7 H          13.2820   32.1120  116.6080 H       1  UNL1        0.0365
      8 H           9.4280   31.6500  118.9970 H       1  UNL1        0.0666
      9 H           9.3500   29.3940  117.9300 H       1  UNL1        0.0625
     10 H           6.9830   30.5900  116.4100 H       1  UNL1        0.0291
     11 H           9.3610   30.1060  115.2730 H       1  UNL1        0.0266
     12 H           9.4380   27.9660  114.1690 H       1  UNL1        0.0267
     13 H           9.0090   27.1290  117.0680 H       1  UNL1        0.0304
     14 H          11.0300   25.7780  116.7570 H       1  UNL1        0.0785
     15 H          12.9110   26.6000  112.6900 H       1  UNL1        0.0239
     16 H          16.1930   28.6520  111.5180 H       1  UNL1        0.0524
     17 H          14.9230   33.0910  115.0950 H       1  UNL1        0.0234
     18 H          12.9860   34.1770  115.3540 H       1  UNL1        0.0236
     19 H           7.0480   34.1380  118.6690 H       1  UNL1        0.0524
     20 H           7.5640   29.0970  120.9210 H       1  UNL1        0.0524
     21 H          10.1580   25.5060  113.1910 H       1  UNL1        0.0621
     22 H           8.7980   23.6630  112.2820 H       1  UNL1        0.0618
     23 H           7.5640   22.1470  113.8090 H       1  UNL1        0.0618
     24 H           7.6960   22.4860  116.2630 H       1  UNL1        0.0618
     25 H           9.0550   24.3230  117.1930 H       1  UNL1        0.0621
     26 H          11.7050   29.6710  112.6220 H       1  UNL1        0.2129
     27 H          11.6150   30.7460  117.5250 H       1  UNL1        0.0573
     28 H           9.6600   32.7990  116.3430 H       1  UNL1        0.0595
     29 H           8.9370   28.4890  119.9780 H       1  UNL1        0.0524
     30 H           7.0030   28.8950  116.7900 H       1  UNL1        0.0291
     31 H           7.8480   29.7700  114.4690 H       1  UNL1        0.0266
     32 H           7.9660   27.4140  114.9490 H       1  UNL1        0.0267
     33 H          10.3690   28.1690  116.6260 H       1  UNL1        0.0304
     34 H          13.9690   25.7150  113.7940 H       1  UNL1        0.0239
     35 H          16.3990   30.4310  111.6020 H       1  UNL1        0.0524
     36 H          15.7180   32.5580  113.6220 H       1  UNL1        0.0234
     37 H          11.8310   34.1930  116.6700 H       1  UNL1        0.0236
     38 H           7.8610   33.1000  119.8570 H       1  UNL1        0.0524
     39 H           8.9060   30.1900  120.5470 H       1  UNL1        0.0524
     40 H          14.6500   26.9280  112.7110 H       1  UNL1        0.0239
     41 H          17.3960   29.3680  112.6090 H       1  UNL1        0.0524
     42 H          15.3460   31.3960  114.9110 H       1  UNL1        0.0234
     43 H          11.2910   33.8140  115.0210 H       1  UNL1        0.0236
     44 H           8.8220   34.0820  118.7020 H       1  UNL1        0.0524
     45 C          12.6300   27.2520  115.4830 C.2     1  UNL1        0.3158
     46 C          13.5810   27.7650  114.4220 C.3     1  UNL1        0.1098
     47 C          13.1030   29.1380  113.8850 C.3     1  UNL1        0.2096
     48 C          14.0990   29.6760  112.7980 C.3     1  UNL1        0.1386
     49 C          13.7510   31.1390  112.4650 C.3     1  UNL1        0.0913
     50 C          13.6070   32.0180  113.7190 C.3     1  UNL1        0.0117
     51 C          12.5850   31.3700  114.6870 C.3     1  UNL1        0.0730
     52 C          12.3650   32.1750  116.0070 C.3     1  UNL1        0.0011
     53 C          11.2770   31.5660  116.8910 C.2     1  UNL1       -0.0802
     54 C          10.0050   31.9960  116.9900 C.2     1  UNL1       -0.0568
     55 C           8.9840   31.5310  118.0010 C.3     1  UNL1        0.1025
     56 C           8.4880   30.0590  117.8700 C.3     1  UNL1        0.0879
     57 C           7.6640   29.7510  116.6010 C.3     1  UNL1       -0.0239
     58 C           8.4690   29.4790  115.3260 C.3     1  UNL1       -0.0505
     59 C           8.8710   28.0130  115.1050 C.3     1  UNL1       -0.0493
     60 C           9.6870   27.4010  116.2500 C.3     1  UNL1       -0.0114
     61 C          10.5430   26.1820  115.8590 C.3     1  UNL1        0.1280
     62 C          13.7860   26.6960  113.3410 C.3     1  UNL1       -0.0472
     63 C          16.4010   29.5010  112.1760 C.3     1  UNL1        0.0371
     64 C          14.9730   32.2720  114.3720 C.3     1  UNL1       -0.0576
     65 C          12.1000   33.6690  115.7450 C.3     1  UNL1       -0.0566
     66 C           7.9120   33.4900  118.8360 C.3     1  UNL1        0.0373
     67 C           8.3050   29.3630  120.1620 C.3     1  UNL1        0.0369
     68 C           9.7210   25.0500  115.2630 C.ar    1  UNL1       -0.0073
     69 C           9.6310   24.8470  113.8770 C.ar    1  UNL1       -0.0551
     70 C           8.8590   23.8060  113.3570 C.ar    1  UNL1       -0.0614
     71 C           8.1650   22.9560  114.2150 C.ar    1  UNL1       -0.0617
     72 C           8.2400   23.1470  115.5930 C.ar    1  UNL1       -0.0614
     73 C           9.0110   24.1880  116.1140 C.ar    1  UNL1       -0.0551
     74 O          12.8100   27.4040  116.6870 O.2     1  UNL1       -0.2503
     75 O          11.8070   28.9720  113.2990 O.3     1  UNL1       -0.3619
     76 O          15.4600   29.5520  113.2400 O.3     1  UNL1       -0.3718
     77 O          12.5090   31.1530  111.7380 O.3     1  UNL1       -0.3887
     78 O          13.0210   30.0380  115.0070 O.3     1  UNL1       -0.3415
     79 O           7.8590   32.4250  117.8960 O.3     1  UNL1       -0.3732
     80 O           7.6110   29.7360  118.9800 O.3     1  UNL1       -0.3769
     81 O          11.5680   26.5950  114.9370 O.3     1  UNL1       -0.4563
@<TRIPOS>BOND
     1     1    77    1
     2    16    63    1
     3    35    63    1
     4    77    49    1
     5     4    49    1
     6     3    48    1
     7    63    41    1
     8    63    76    1
     9    22    70    1
    10    49    48    1
    11    49    50    1
    12    26    75    1
    13    15    62    1
    14    40    62    1
    15    48    76    1
    16    48    47    1
    17    21    69    1
    18    75    47    1
    19    62    34    1
    20    62    46    1
    21    70    69   ar
    22    70    71   ar
    23     5    50    1
    24    36    64    1
    25    50    64    1
    26    50    51    1
    27    23    71    1
    28    69    68   ar
    29    47    46    1
    30    47    78    1
    31    12    59    1
    32     6    51    1
    33    71    72   ar
    34    64    42    1
    35    64    17    1
    36    46     2    1
    37    46    45    1
    38    31    58    1
    39    51    78    1
    40    51    52    1
    41    81    45    1
    42    81    61    1
    43    32    59    1
    44    43    65    1
    45    59    58    1
    46    59    60    1
    47    68    61    1
    48    68    73   ar
    49    11    58    1
    50    58    57    1
    51    18    65    1
    52    45    74    2
    53    72    73   ar
    54    72    24    1
    55    65    52    1
    56    65    37    1
    57    61    60    1
    58    61    14    1
    59    52     7    1
    60    52    53    1
    61    73    25    1
    62    60    33    1
    63    60    13    1
    64    28    54    1
    65    10    57    1
    66    57    30    1
    67    57    56    1
    68    53    54    2
    69    53    27    1
    70    54    55    1
    71    56     9    1
    72    56    55    1
    73    56    80    1
    74    79    55    1
    75    79    66    1
    76    55     8    1
    77    19    66    1
    78    44    66    1
    79    66    38    1
    80    80    67    1
    81    29    67    1
    82    67    39    1
    83    67    20    1
