@<TRIPOS>MOLECULE
136.47601
 81 83 0 0 0
SMALL
GASTEIGER

@<TRIPOS>ATOM
      1 H          18.3550   32.0870  117.1590 H       1  UNL1        0.2099
      2 H          16.0860   27.4860  115.0050 H       1  UNL1        0.0465
      3 H          17.8000   28.8330  116.2920 H       1  UNL1        0.0676
      4 H          17.9900   30.2950  118.3980 H       1  UNL1        0.0624
      5 H          16.4020   32.2480  118.4330 H       1  UNL1        0.0349
      6 H          15.4400   32.1020  116.2130 H       1  UNL1        0.0606
      7 H          13.3310   31.5530  118.3540 H       1  UNL1        0.0365
      8 H           9.3690   32.0010  116.1590 H       1  UNL1        0.0666
      9 H           9.7740   29.5120  116.9340 H       1  UNL1        0.0625
     10 H          11.6270   29.2260  115.0770 H       1  UNL1        0.0291
     11 H           9.4380   27.1420  115.5550 H       1  UNL1        0.0266
     12 H          12.0490   27.0590  114.0330 H       1  UNL1        0.0267
     13 H          12.1060   24.6060  114.3250 H       1  UNL1        0.0304
     14 H          12.4970   25.9680  117.0350 H       1  UNL1        0.0785
     15 H          13.7130   29.1100  113.9430 H       1  UNL1        0.0239
     16 H          18.2110   26.9410  117.5440 H       1  UNL1        0.0524
     17 H          14.8470   31.2190  119.9230 H       1  UNL1        0.0234
     18 H          14.5900   33.6450  118.7220 H       1  UNL1        0.0236
     19 H           9.7780   32.4170  112.7040 H       1  UNL1        0.0524
     20 H           6.3950   29.8320  116.0490 H       1  UNL1        0.0524
     21 H          14.3610   23.5890  114.7260 H       1  UNL1        0.0621
     22 H          15.2660   21.4330  115.5190 H       1  UNL1        0.0618
     23 H          14.9260   20.7240  117.8720 H       1  UNL1        0.0618
     24 H          13.6740   22.1860  119.4370 H       1  UNL1        0.0618
     25 H          12.7590   24.3400  118.6630 H       1  UNL1        0.0621
     26 H          17.0430   30.8300  115.1430 H       1  UNL1        0.2129
     27 H          12.8170   32.2960  115.4160 H       1  UNL1        0.0573
     28 H          11.1410   31.2930  117.7760 H       1  UNL1        0.0595
     29 H           7.5160   29.2920  117.3130 H       1  UNL1        0.0524
     30 H          10.2620   28.9830  113.9730 H       1  UNL1        0.0291
     31 H          10.9030   27.3900  116.4940 H       1  UNL1        0.0266
     32 H          10.5320   26.2620  113.7060 H       1  UNL1        0.0267
     33 H          10.9290   24.6930  115.6300 H       1  UNL1        0.0304
     34 H          14.1890   27.4980  113.3890 H       1  UNL1        0.0239
     35 H          18.3170   28.1210  118.8900 H       1  UNL1        0.0524
     36 H          16.3050   30.2480  120.0380 H       1  UNL1        0.0234
     37 H          12.9500   34.0210  118.2020 H       1  UNL1        0.0236
     38 H           8.9380   31.0150  113.3740 H       1  UNL1        0.0524
     39 H           7.4790   31.0120  116.8080 H       1  UNL1        0.0524
     40 H          15.2590   28.8540  113.1120 H       1  UNL1        0.0239
     41 H          17.2700   26.6960  119.0280 H       1  UNL1        0.0524
     42 H          14.9200   29.6570  119.0990 H       1  UNL1        0.0234
     43 H          14.2900   34.1570  117.0530 H       1  UNL1        0.0236
     44 H           8.6930   32.6440  114.0870 H       1  UNL1        0.0524
     45 C          14.2480   27.4210  116.0920 C.2     1  UNL1        0.3158
     46 C          15.2390   28.1610  115.1920 C.3     1  UNL1        0.1098
     47 C          15.7970   29.4680  115.8190 C.3     1  UNL1        0.2096
     48 C          16.9240   29.1760  116.8610 C.3     1  UNL1        0.1386
     49 C          17.2900   30.4930  117.5790 C.3     1  UNL1        0.0913
     50 C          16.0630   31.2530  118.1160 C.3     1  UNL1        0.0117
     51 C          15.0150   31.4480  116.9860 C.3     1  UNL1        0.0730
     52 C          13.6840   32.1030  117.4730 C.3     1  UNL1        0.0011
     53 C          12.5730   32.0240  116.4400 C.2     1  UNL1       -0.0802
     54 C          11.3430   31.5670  116.7420 C.2     1  UNL1       -0.0568
     55 C          10.1720   31.3420  115.8060 C.3     1  UNL1        0.1025
     56 C           9.7120   29.8490  115.8900 C.3     1  UNL1        0.0879
     57 C          10.5770   28.9200  115.0220 C.3     1  UNL1       -0.0239
     58 C          10.4860   27.4580  115.4850 C.3     1  UNL1       -0.0505
     59 C          11.2230   26.5300  114.5160 C.3     1  UNL1       -0.0493
     60 C          11.7530   25.2370  115.1510 C.3     1  UNL1       -0.0114
     61 C          12.9020   25.4470  116.1620 C.3     1  UNL1        0.1280
     62 C          14.5600   28.4250  113.8370 C.3     1  UNL1       -0.0472
     63 C          17.6550   27.4500  118.3360 C.3     1  UNL1        0.0371
     64 C          15.5010   30.5470  119.3570 C.3     1  UNL1       -0.0576
     65 C          13.8930   33.5630  117.8830 C.3     1  UNL1       -0.0566
     66 C           9.4170   31.9620  113.6300 C.3     1  UNL1        0.0373
     67 C           7.3950   29.9770  116.4680 C.3     1  UNL1        0.0369
     68 C          13.4800   24.1230  116.6310 C.ar    1  UNL1       -0.0073
     69 C          14.1980   23.2880  115.7590 C.ar    1  UNL1       -0.0551
     70 C          14.7140   22.0700  116.2040 C.ar    1  UNL1       -0.0614
     71 C          14.5240   21.6720  117.5260 C.ar    1  UNL1       -0.0617
     72 C          13.8190   22.4930  118.4040 C.ar    1  UNL1       -0.0614
     73 C          13.3010   23.7100  117.9600 C.ar    1  UNL1       -0.0551
     74 O          13.7350   27.8290  117.1240 O.2     1  UNL1       -0.2503
     75 O          16.3680   30.2440  114.7450 O.3     1  UNL1       -0.3619
     76 O          16.5500   28.1570  117.7910 O.3     1  UNL1       -0.3718
     77 O          17.9850   31.3430  116.6470 O.3     1  UNL1       -0.3887
     78 O          14.7040   30.1980  116.3720 O.3     1  UNL1       -0.3415
     79 O          10.5330   31.7570  114.4830 O.3     1  UNL1       -0.3732
     80 O           8.3460   29.6860  115.4530 O.3     1  UNL1       -0.3769
     81 O          13.9600   26.2010  115.5360 O.3     1  UNL1       -0.4563
@<TRIPOS>BOND
     1    19    66    1
     2    40    62    1
     3    38    66    1
     4    34    62    1
     5    66    44    1
     6    66    79    1
     7    32    59    1
     8    62    15    1
     9    62    46    1
    10    30    57    1
    11    12    59    1
    12    13    60    1
    13    79    55    1
    14    59    60    1
    15    59    58    1
    16    21    69    1
    17    75    26    1
    18    75    47    1
    19     2    46    1
    20    57    10    1
    21    57    58    1
    22    57    56    1
    23    60    33    1
    24    60    61    1
    25    46    47    1
    26    46    45    1
    27    27    53    1
    28    80    56    1
    29    80    67    1
    30    58    11    1
    31    58    31    1
    32    22    70    1
    33    81    45    1
    34    81    61    1
    35    69    70   ar
    36    69    68   ar
    37    55    56    1
    38    55     8    1
    39    55    54    1
    40    47    78    1
    41    47    48    1
    42    56     9    1
    43    20    67    1
    44    45    74    2
    45    61    68    1
    46    61    14    1
    47    70    71   ar
    48     6    51    1
    49     3    48    1
    50    78    51    1
    51    53    54    2
    52    53    52    1
    53    67    39    1
    54    67    29    1
    55    68    73   ar
    56    77     1    1
    57    77    49    1
    58    54    28    1
    59    48    49    1
    60    48    76    1
    61    51    52    1
    62    51    50    1
    63    43    65    1
    64    52    65    1
    65    52     7    1
    66    71    23    1
    67    71    72   ar
    68    16    63    1
    69    49    50    1
    70    49     4    1
    71    76    63    1
    72    65    37    1
    73    65    18    1
    74    73    72   ar
    75    73    25    1
    76    50     5    1
    77    50    64    1
    78    63    35    1
    79    63    41    1
    80    72    24    1
    81    42    64    1
    82    64    17    1
    83    64    36    1
