@<TRIPOS>MOLECULE
138.18075
 81 83 0 0 0
SMALL
GASTEIGER

@<TRIPOS>ATOM
      1 H          16.6440   22.9610  114.4110 H       1  UNL1        0.2099
      2 H          14.7080   27.8520  112.8810 H       1  UNL1        0.0465
      3 H          14.5110   25.2540  113.0100 H       1  UNL1        0.0676
      4 H          14.4580   23.1980  114.5370 H       1  UNL1        0.0624
      5 H          15.9200   23.4060  116.5940 H       1  UNL1        0.0349
      6 H          17.0050   25.5310  116.1830 H       1  UNL1        0.0606
      7 H          15.1420   25.8150  118.5830 H       1  UNL1        0.0365
      8 H          17.2380   29.2650  120.8750 H       1  UNL1        0.0666
      9 H          14.7080   29.7110  120.4250 H       1  UNL1        0.0625
     10 H          15.5550   30.0820  117.7370 H       1  UNL1        0.0291
     11 H          13.3280   31.0290  117.3350 H       1  UNL1        0.0266
     12 H          13.8340   28.4470  117.8660 H       1  UNL1        0.0267
     13 H          10.9430   29.4670  118.0240 H       1  UNL1        0.0304
     14 H          11.0690   28.1960  115.6430 H       1  UNL1        0.0785
     15 H          15.6130   29.2560  115.4330 H       1  UNL1        0.0239
     16 H          12.2290   25.2290  112.6040 H       1  UNL1        0.0524
     17 H          14.1040   23.8560  118.0740 H       1  UNL1        0.0234
     18 H          16.5500   23.7800  118.7440 H       1  UNL1        0.0236
     19 H          19.3350   31.0960  118.7420 H       1  UNL1        0.0524
     20 H          15.8210   32.2370  122.5680 H       1  UNL1        0.0524
     21 H          13.1100   31.1520  114.9190 H       1  UNL1        0.0621
     22 H          12.1620   33.2860  114.1550 H       1  UNL1        0.0618
     23 H           9.7240   33.7110  114.3280 H       1  UNL1        0.0618
     24 H           8.2300   31.9690  115.2710 H       1  UNL1        0.0618
     25 H           9.1590   29.8180  116.0370 H       1  UNL1        0.0621
     26 H          16.7970   25.5750  113.9060 H       1  UNL1        0.2129
     27 H          17.4290   27.6230  117.7150 H       1  UNL1        0.0573
     28 H          15.6460   27.4750  120.2030 H       1  UNL1        0.0595
     29 H          14.5970   30.9750  122.3280 H       1  UNL1        0.0524
     30 H          15.3500   31.7230  118.3310 H       1  UNL1        0.0291
     31 H          13.0060   31.1300  119.0560 H       1  UNL1        0.0266
     32 H          12.9510   28.7770  119.3360 H       1  UNL1        0.0267
     33 H          11.4670   27.8140  117.8050 H       1  UNL1        0.0304
     34 H          15.0730   30.0560  113.9520 H       1  UNL1        0.0239
     35 H          12.4150   23.6930  113.5110 H       1  UNL1        0.0524
     36 H          13.3570   23.2300  116.6120 H       1  UNL1        0.0234
     37 H          17.1520   24.9900  119.8680 H       1  UNL1        0.0236
     38 H          17.8050   31.8300  119.2300 H       1  UNL1        0.0524
     39 H          16.3320   30.5430  122.4620 H       1  UNL1        0.0524
     40 H          16.5290   29.0600  113.9320 H       1  UNL1        0.0239
     41 H          11.1570   24.8590  113.9700 H       1  UNL1        0.0524
     42 H          13.3180   24.9710  116.9550 H       1  UNL1        0.0234
     43 H          18.0010   24.7120  118.3400 H       1  UNL1        0.0236
     44 H          18.7830   30.8990  120.4160 H       1  UNL1        0.0524
     45 C          13.2140   28.1700  114.3190 C.2     1  UNL1        0.3158
     46 C          14.6670   27.9140  113.9780 C.3     1  UNL1        0.1098
     47 C          15.2340   26.5930  114.5490 C.3     1  UNL1        0.2096
     48 C          14.4300   25.3310  114.1040 C.3     1  UNL1        0.1386
     49 C          15.0700   24.0820  114.7470 C.3     1  UNL1        0.0913
     50 C          15.2690   24.2280  116.2700 C.3     1  UNL1        0.0117
     51 C          15.9890   25.5670  116.5980 C.3     1  UNL1        0.0730
     52 C          16.1410   25.8370  118.1280 C.3     1  UNL1        0.0011
     53 C          16.7240   27.2050  118.4320 C.2     1  UNL1       -0.0802
     54 C          16.3560   27.9230  119.5090 C.2     1  UNL1       -0.0568
     55 C          16.7840   29.3290  119.8790 C.3     1  UNL1        0.1025
     56 C          15.5200   30.2500  119.9220 C.3     1  UNL1        0.0879
     57 C          15.0640   30.6800  118.5130 C.3     1  UNL1       -0.0239
     58 C          13.5480   30.5590  118.2940 C.3     1  UNL1       -0.0505
     59 C          13.0690   29.1030  118.2960 C.3     1  UNL1       -0.0493
     60 C          11.7350   28.8560  117.5750 C.3     1  UNL1       -0.0114
     61 C          11.7460   28.9710  116.0290 C.3     1  UNL1        0.1280
     62 C          15.5200   29.1380  114.3490 C.3     1  UNL1       -0.0472
     63 C          12.1770   24.7570  113.5900 C.3     1  UNL1        0.0371
     64 C          13.9350   24.0700  117.0130 C.3     1  UNL1       -0.0576
     65 C          17.0100   24.7700  118.8040 C.3     1  UNL1       -0.0566
     66 C          18.4530   30.9620  119.3750 C.3     1  UNL1        0.0373
     67 C          15.6200   31.2780  122.0820 C.3     1  UNL1        0.0369
     68 C          11.2120   30.3140  115.5460 C.ar    1  UNL1       -0.0073
     69 C          12.0370   31.3090  115.0030 C.ar    1  UNL1       -0.0551
     70 C          11.5050   32.5260  114.5700 C.ar    1  UNL1       -0.0614
     71 C          10.1370   32.7650  114.6680 C.ar    1  UNL1       -0.0617
     72 C           9.2990   31.7880  115.1990 C.ar    1  UNL1       -0.0614
     73 C           9.8320   30.5720  115.6330 C.ar    1  UNL1       -0.0551
     74 O          12.2950   27.9730  113.5320 O.2     1  UNL1       -0.2503
     75 O          16.5760   26.5220  114.0160 O.3     1  UNL1       -0.3619
     76 O          13.0570   25.4070  114.4990 O.3     1  UNL1       -0.3718
     77 O          16.3500   23.8500  114.1340 O.3     1  UNL1       -0.3887
     78 O          15.2960   26.6660  115.9820 O.3     1  UNL1       -0.3415
     79 O          17.7980   29.7690  118.9690 O.3     1  UNL1       -0.3732
     80 O          15.7600   31.4550  120.6790 O.3     1  UNL1       -0.3769
     81 O          13.0770   28.6900  115.5640 O.3     1  UNL1       -0.4563
@<TRIPOS>BOND
     1    16    63    1
     2     2    46    1
     3     3    48    1
     4    35    63    1
     5    74    45    2
     6    63    41    1
     7    63    76    1
     8    26    75    1
     9    40    62    1
    10    34    62    1
    11    46    45    1
    12    46    62    1
    13    46    47    1
    14    75    47    1
    15    48    76    1
    16    48    47    1
    17    48    49    1
    18    77     1    1
    19    77    49    1
    20    22    70    1
    21    45    81    1
    22    23    71    1
    23    62    15    1
    24     4    49    1
    25    47    78    1
    26    70    71   ar
    27    70    69   ar
    28    71    72   ar
    29    49    50    1
    30    21    69    1
    31    69    68   ar
    32    72    24    1
    33    72    73   ar
    34    68    73   ar
    35    68    61    1
    36    81    61    1
    37    73    25    1
    38    14    61    1
    39    78    51    1
    40    61    60    1
    41     6    51    1
    42    50     5    1
    43    50    51    1
    44    50    64    1
    45    51    52    1
    46    36    64    1
    47    42    64    1
    48    64    17    1
    49    11    58    1
    50    60    33    1
    51    60    13    1
    52    60    59    1
    53    27    53    1
    54    10    57    1
    55    12    59    1
    56    52    53    1
    57    52     7    1
    58    52    65    1
    59    58    59    1
    60    58    57    1
    61    58    31    1
    62    59    32    1
    63    30    57    1
    64    43    65    1
    65    53    54    2
    66    57    56    1
    67    19    66    1
    68    18    65    1
    69    65    37    1
    70    79    66    1
    71    79    55    1
    72    38    66    1
    73    66    44    1
    74    54    55    1
    75    54    28    1
    76    55    56    1
    77    55     8    1
    78    56     9    1
    79    56    80    1
    80    80    67    1
    81    67    29    1
    82    67    39    1
    83    67    20    1
