@<TRIPOS>MOLECULE
139.46278
 81 83 0 0 0
SMALL
GASTEIGER

@<TRIPOS>ATOM
      1 H          13.1760   33.0950  112.0000 H       1  UNL1        0.2099
      2 H          14.3460   27.6560  113.8420 H       1  UNL1        0.0465
      3 H          13.8330   29.8060  111.4340 H       1  UNL1        0.0676
      4 H          15.0840   31.9860  111.9550 H       1  UNL1        0.0624
      5 H          14.3310   33.1410  114.0500 H       1  UNL1        0.0349
      6 H          12.4020   31.7270  114.5410 H       1  UNL1        0.0606
      7 H          14.3010   31.2990  116.8960 H       1  UNL1        0.0365
      8 H           9.7200   31.1090  119.0820 H       1  UNL1        0.0666
      9 H          10.0670   29.4370  116.5720 H       1  UNL1        0.0625
     10 H           7.5850   29.5840  117.0930 H       1  UNL1        0.0291
     11 H           7.2550   27.0840  117.1880 H       1  UNL1        0.0266
     12 H           9.0440   28.4050  115.1150 H       1  UNL1        0.0267
     13 H           8.7740   26.2740  113.7910 H       1  UNL1        0.0304
     14 H          10.7020   26.3290  116.1660 H       1  UNL1        0.0785
     15 H          12.0590   27.4680  111.8160 H       1  UNL1        0.0239
     16 H          15.8050   28.9000  110.6270 H       1  UNL1        0.0524
     17 H          16.0940   32.2870  115.4750 H       1  UNL1        0.0234
     18 H          14.4470   33.6960  116.3160 H       1  UNL1        0.0236
     19 H           7.7820   32.4480  115.7750 H       1  UNL1        0.0524
     20 H          11.1200   27.8600  120.1490 H       1  UNL1        0.0524
     21 H          10.3670   24.7530  112.7020 H       1  UNL1        0.0621
     22 H          11.0510   22.4300  112.2240 H       1  UNL1        0.0618
     23 H          11.9990   21.0120  114.0260 H       1  UNL1        0.0618
     24 H          12.2670   21.9330  116.3140 H       1  UNL1        0.0618
     25 H          11.5890   24.2540  116.8090 H       1  UNL1        0.0621
     26 H          11.9000   30.6500  112.6380 H       1  UNL1        0.2129
     27 H          12.2160   30.0340  116.9680 H       1  UNL1        0.0573
     28 H          11.1060   32.7890  117.7560 H       1  UNL1        0.0595
     29 H          11.0330   29.6220  120.1020 H       1  UNL1        0.0524
     30 H           7.9260   28.8420  118.6480 H       1  UNL1        0.0291
     31 H           8.9730   26.8810  117.4410 H       1  UNL1        0.0266
     32 H           7.4240   27.7630  114.9940 H       1  UNL1        0.0267
     33 H           8.4090   25.4270  115.2980 H       1  UNL1        0.0304
     34 H          13.0590   26.1160  112.3570 H       1  UNL1        0.0239
     35 H          16.4890   30.4960  111.0750 H       1  UNL1        0.0524
     36 H          16.6400   32.1010  113.8120 H       1  UNL1        0.0234
     37 H          13.4430   33.5120  117.7430 H       1  UNL1        0.0236
     38 H           9.5420   32.5820  115.7040 H       1  UNL1        0.0524
     39 H           9.5310   28.6400  120.1250 H       1  UNL1        0.0524
     40 H          13.7960   27.4500  111.4740 H       1  UNL1        0.0239
     41 H          17.2600   29.0020  111.6380 H       1  UNL1        0.0524
     42 H          16.0580   30.6960  114.7260 H       1  UNL1        0.0234
     43 H          12.6910   33.8110  116.1630 H       1  UNL1        0.0236
     44 H           8.7470   30.9860  115.5300 H       1  UNL1        0.0524
     45 C          12.4710   27.3190  114.6660 C.2     1  UNL1        0.3158
     46 C          13.3170   27.9170  113.5530 C.3     1  UNL1        0.1098
     47 C          13.1960   29.4570  113.4820 C.3     1  UNL1        0.2096
     48 C          14.2140   30.0450  112.4370 C.3     1  UNL1        0.1386
     49 C          14.2810   31.5810  112.5790 C.3     1  UNL1        0.0913
     50 C          14.4750   32.0530  114.0350 C.3     1  UNL1        0.0117
     51 C          13.3860   31.4070  114.9130 C.3     1  UNL1        0.0730
     52 C          13.4240   31.7700  116.4330 C.3     1  UNL1        0.0011
     53 C          12.2040   31.1210  117.0720 C.2     1  UNL1       -0.0802
     54 C          11.1300   31.7090  117.6290 C.2     1  UNL1       -0.0568
     55 C           9.8250   31.0180  117.9960 C.3     1  UNL1        0.1025
     56 C           9.7190   29.5050  117.6070 C.3     1  UNL1        0.0879
     57 C           8.2860   28.9280  117.6170 C.3     1  UNL1       -0.0239
     58 C           8.2320   27.5340  116.9690 C.3     1  UNL1       -0.0505
     59 C           8.4090   27.5770  115.4410 C.3     1  UNL1       -0.0493
     60 C           8.9680   26.2700  114.8710 C.3     1  UNL1       -0.0114
     61 C          10.4830   26.0980  115.1180 C.3     1  UNL1        0.1280
     62 C          13.0400   27.2040  112.2240 C.3     1  UNL1       -0.0472
     63 C          16.2990   29.4750  111.4160 C.3     1  UNL1        0.0371
     64 C          15.8930   31.7610  114.5370 C.3     1  UNL1       -0.0576
     65 C          13.5010   33.2800  116.6740 C.3     1  UNL1       -0.0566
     66 C           8.7180   31.9490  116.0440 C.3     1  UNL1        0.0373
     67 C          10.5540   28.7060  119.7470 C.3     1  UNL1        0.0369
     68 C          10.9050   24.6710  114.7980 C.ar    1  UNL1       -0.0073
     69 C          10.7710   24.1400  113.5040 C.ar    1  UNL1       -0.0551
     70 C          11.1600   22.8290  113.2290 C.ar    1  UNL1       -0.0614
     71 C          11.6930   22.0330  114.2410 C.ar    1  UNL1       -0.0617
     72 C          11.8410   22.5490  115.5260 C.ar    1  UNL1       -0.0614
     73 C          11.4520   23.8610  115.8040 C.ar    1  UNL1       -0.0551
     74 O          12.9160   27.0740  115.7830 O.2     1  UNL1       -0.2503
     75 O          11.8560   29.7890  113.0990 O.3     1  UNL1       -0.3619
     76 O          15.5170   29.4650  112.6020 O.3     1  UNL1       -0.3718
     77 O          13.0500   32.1300  112.0720 O.3     1  UNL1       -0.3887
     78 O          13.4750   29.9770  114.7880 O.3     1  UNL1       -0.3415
     79 O           8.7370   31.8010  117.4610 O.3     1  UNL1       -0.3732
     80 O          10.6040   28.6310  118.3330 O.3     1  UNL1       -0.3769
     81 O          11.2120   26.9920  114.2490 O.3     1  UNL1       -0.4563
@<TRIPOS>BOND
     1    16    63    1
     2    35    63    1
     3    63    41    1
     4    63    76    1
     5     3    48    1
     6    40    62    1
     7    15    62    1
     8     4    49    1
     9     1    77    1
    10    77    49    1
    11    22    70    1
    12    62    34    1
    13    62    46    1
    14    48    49    1
    15    48    76    1
    16    48    47    1
    17    49    50    1
    18    26    75    1
    19    21    69    1
    20    75    47    1
    21    70    69   ar
    22    70    71   ar
    23    47    46    1
    24    47    78    1
    25    69    68   ar
    26    46     2    1
    27    46    45    1
    28    13    60    1
    29    36    64    1
    30    23    71    1
    31    50     5    1
    32    50    64    1
    33    50    51    1
    34    71    72   ar
    35    81    45    1
    36    81    61    1
    37    64    42    1
    38    64    17    1
    39     6    51    1
    40    45    74    2
    41    78    51    1
    42    68    61    1
    43    68    73   ar
    44    60    61    1
    45    60    33    1
    46    60    59    1
    47    51    52    1
    48    32    59    1
    49    12    59    1
    50    61    14    1
    51    59    58    1
    52    72    73   ar
    53    72    24    1
    54    44    66    1
    55    38    66    1
    56    19    66    1
    57    73    25    1
    58    66    79    1
    59    43    65    1
    60    18    65    1
    61    52    65    1
    62    52     7    1
    63    52    53    1
    64     9    56    1
    65    65    37    1
    66    27    53    1
    67    58    11    1
    68    58    31    1
    69    58    57    1
    70    53    54    2
    71    10    57    1
    72    79    55    1
    73    56    57    1
    74    56    55    1
    75    56    80    1
    76    57    30    1
    77    54    28    1
    78    54    55    1
    79    55     8    1
    80    80    67    1
    81    67    29    1
    82    67    39    1
    83    67    20    1
