@<TRIPOS>MOLECULE
147.91640
 81 83 0 0 0
SMALL
GASTEIGER

@<TRIPOS>ATOM
      1 H          12.6510   30.1300  109.2640 H       1  UNL1        0.2099
      2 H          13.4550   28.3090  114.7800 H       1  UNL1        0.0465
      3 H          14.6160   29.4180  111.9670 H       1  UNL1        0.0676
      4 H          13.2010   31.3380  111.0380 H       1  UNL1        0.0624
      5 H          10.8080   30.6980  110.5490 H       1  UNL1        0.0349
      6 H          10.8690   28.3060  111.0400 H       1  UNL1        0.0606
      7 H           9.0850   29.7150  113.0750 H       1  UNL1        0.0365
      8 H           7.0970   25.8500  113.8880 H       1  UNL1        0.0666
      9 H           7.4460   23.4330  113.3200 H       1  UNL1        0.0625
     10 H           8.9210   24.8650  114.8210 H       1  UNL1        0.0291
     11 H          10.1100   22.4190  113.4730 H       1  UNL1        0.0266
     12 H          12.1000   23.4770  114.3120 H       1  UNL1        0.0267
     13 H          12.3600   23.9050  116.7840 H       1  UNL1        0.0304
     14 H          10.5890   25.9750  115.3640 H       1  UNL1        0.0785
     15 H          15.1590   26.5240  112.9370 H       1  UNL1        0.0239
     16 H          15.7270   30.8830  113.3700 H       1  UNL1        0.0524
     17 H           9.9290   31.7430  112.5260 H       1  UNL1        0.0234
     18 H           8.5680   30.5440  110.8520 H       1  UNL1        0.0236
     19 H           4.1800   26.0480  111.9570 H       1  UNL1        0.0524
     20 H           8.1930   22.7800  109.9560 H       1  UNL1        0.0524
     21 H          12.9940   26.1540  118.2530 H       1  UNL1        0.0621
     22 H          12.3860   27.1950  120.4070 H       1  UNL1        0.0618
     23 H          10.0650   27.9710  120.8090 H       1  UNL1        0.0618
     24 H           8.3460   27.7020  119.0420 H       1  UNL1        0.0618
     25 H           8.9330   26.6670  116.8820 H       1  UNL1        0.0621
     26 H          13.0860   27.9260  110.7530 H       1  UNL1        0.2129
     27 H           8.8040   27.6160  113.9090 H       1  UNL1        0.0573
     28 H           7.9790   26.7250  111.0890 H       1  UNL1        0.0595
     29 H           6.9290   22.7040  111.1980 H       1  UNL1        0.0524
     30 H          10.0380   25.0070  113.4390 H       1  UNL1        0.0291
     31 H           9.2860   22.5260  115.0180 H       1  UNL1        0.0266
     32 H          11.6120   22.2150  115.3860 H       1  UNL1        0.0267
     33 H          10.6110   23.8350  116.9540 H       1  UNL1        0.0304
     34 H          15.3830   26.7170  114.6740 H       1  UNL1        0.0239
     35 H          14.6500   32.0890  112.5930 H       1  UNL1        0.0524
     36 H          11.5430   32.4020  112.3150 H       1  UNL1        0.0234
     37 H           7.3010   29.4210  111.3190 H       1  UNL1        0.0236
     38 H           4.8790   26.3020  113.5680 H       1  UNL1        0.0524
     39 H           7.2230   24.2190  110.2710 H       1  UNL1        0.0524
     40 H          15.6520   28.0940  113.6020 H       1  UNL1        0.0239
     41 H          14.7630   31.9970  114.3600 H       1  UNL1        0.0524
     42 H          11.2460   31.1600  113.5460 H       1  UNL1        0.0234
     43 H           8.5560   28.9110  110.1730 H       1  UNL1        0.0236
     44 H           5.4060   27.3090  112.1780 H       1  UNL1        0.0524
     45 C          12.7600   26.3780  114.2920 C.2     1  UNL1        0.3158
     46 C          13.5530   27.6160  113.9340 C.3     1  UNL1        0.1098
     47 C          12.9180   28.2770  112.6820 C.3     1  UNL1        0.2096
     48 C          13.6070   29.6380  112.3410 C.3     1  UNL1        0.1386
     49 C          12.8110   30.3290  111.2120 C.3     1  UNL1        0.0913
     50 C          11.2960   30.3980  111.4850 C.3     1  UNL1        0.0117
     51 C          10.7520   28.9960  111.8850 C.3     1  UNL1        0.0730
     52 C           9.2340   29.0010  112.2540 C.3     1  UNL1        0.0011
     53 C           8.7040   27.6910  112.8260 C.2     1  UNL1       -0.0802
     54 C           8.0660   26.7020  112.1710 C.2     1  UNL1       -0.0568
     55 C           7.3380   25.5600  112.8550 C.3     1  UNL1        0.1025
     56 C           8.1220   24.2090  112.9380 C.3     1  UNL1        0.0879
     57 C           9.2940   24.3700  113.9190 C.3     1  UNL1       -0.0239
     58 C           9.9650   23.0660  114.3470 C.3     1  UNL1       -0.0505
     59 C          11.3320   23.2220  115.0440 C.3     1  UNL1       -0.0493
     60 C          11.4160   24.1430  116.2740 C.3     1  UNL1       -0.0114
     61 C          11.3630   25.6750  116.0700 C.3     1  UNL1        0.1280
     62 C          15.0170   27.2190  113.7720 C.3     1  UNL1       -0.0472
     63 C          14.7690   31.4080  113.4390 C.3     1  UNL1        0.0371
     64 C          10.9920   31.4810  112.5310 C.3     1  UNL1       -0.0576
     65 C           8.3690   29.4930  111.0820 C.3     1  UNL1       -0.0566
     66 C           5.0950   26.3090  112.4950 C.3     1  UNL1        0.0373
     67 C           7.6860   23.3490  110.7420 C.3     1  UNL1        0.0369
     68 C          11.0120   26.3380  117.4010 C.ar    1  UNL1       -0.0073
     69 C          11.9720   26.4910  118.4140 C.ar    1  UNL1       -0.0551
     70 C          11.6320   27.0790  119.6340 C.ar    1  UNL1       -0.0614
     71 C          10.3280   27.5150  119.8590 C.ar    1  UNL1       -0.0617
     72 C           9.3630   27.3640  118.8650 C.ar    1  UNL1       -0.0614
     73 C           9.7010   26.7790  117.6430 C.ar    1  UNL1       -0.0551
     74 O          12.3170   25.5690  113.4930 O.2     1  UNL1       -0.2503
     75 O          13.0820   27.3900  111.5700 O.3     1  UNL1       -0.3619
     76 O          13.6970   30.4760  113.5020 O.3     1  UNL1       -0.3718
     77 O          13.0240   29.5970  109.9910 O.3     1  UNL1       -0.3887
     78 O          11.5220   28.4970  112.9870 O.3     1  UNL1       -0.3415
     79 O           6.0850   25.3390  112.1780 O.3     1  UNL1       -0.3732
     80 O           8.6630   23.7520  111.6880 O.3     1  UNL1       -0.3769
     81 O          12.5990   26.2780  115.6420 O.3     1  UNL1       -0.4563
@<TRIPOS>BOND
     1     1    77    1
     2    20    67    1
     3    77    49    1
     4    43    65    1
     5    39    67    1
     6     5    50    1
     7    67    29    1
     8    67    80    1
     9    26    75    1
    10    18    65    1
    11     4    49    1
    12     6    51    1
    13    65    37    1
    14    65    52    1
    15    28    54    1
    16    49    50    1
    17    49    48    1
    18    50    51    1
    19    50    64    1
    20    75    47    1
    21    80    56    1
    22    51    52    1
    23    51    78    1
    24    19    66    1
    25     3    48    1
    26    54    53    2
    27    54    55    1
    28    44    66    1
    29    79    66    1
    30    79    55    1
    31    52    53    1
    32    52     7    1
    33    36    64    1
    34    48    47    1
    35    48    76    1
    36    66    38    1
    37    17    64    1
    38    64    42    1
    39    35    63    1
    40    47    78    1
    41    47    46    1
    42    53    27    1
    43    55    56    1
    44    55     8    1
    45    15    62    1
    46    56     9    1
    47    56    57    1
    48    16    63    1
    49    30    57    1
    50    63    76    1
    51    63    41    1
    52    11    58    1
    53    74    45    2
    54    40    62    1
    55    62    46    1
    56    62    34    1
    57    57    58    1
    58    57    10    1
    59    46    45    1
    60    46     2    1
    61    45    81    1
    62    12    59    1
    63    58    31    1
    64    58    59    1
    65    59    32    1
    66    59    60    1
    67    14    61    1
    68    81    61    1
    69    61    60    1
    70    61    68    1
    71    60    13    1
    72    60    33    1
    73    25    73    1
    74    68    73   ar
    75    68    69   ar
    76    73    72   ar
    77    21    69    1
    78    69    70   ar
    79    72    24    1
    80    72    71   ar
    81    70    71   ar
    82    70    22    1
    83    71    23    1
