@<TRIPOS>MOLECULE
144.67987
 81 83 0 0 0
SMALL
GASTEIGER

@<TRIPOS>ATOM
      1 H          15.4960   24.4750  111.4390 H       1  UNL1        0.2099
      2 H          12.1070   28.5050  113.3820 H       1  UNL1        0.0465
      3 H          13.0570   26.8400  111.7140 H       1  UNL1        0.0676
      4 H          13.3090   24.2810  111.6450 H       1  UNL1        0.0624
      5 H          14.8460   23.3590  113.3940 H       1  UNL1        0.0349
      6 H          15.7530   25.4050  114.3360 H       1  UNL1        0.0606
      7 H          14.0320   24.0510  116.4670 H       1  UNL1        0.0365
      8 H          16.4310   26.5610  119.2990 H       1  UNL1        0.0666
      9 H          16.2030   28.9870  119.6030 H       1  UNL1        0.0625
     10 H          14.1700   27.3050  119.6380 H       1  UNL1        0.0291
     11 H          13.9540   30.3360  119.3960 H       1  UNL1        0.0266
     12 H          11.7040   30.0560  120.4790 H       1  UNL1        0.0267
     13 H          12.2780   30.3930  117.8340 H       1  UNL1        0.0304
     14 H          11.4360   27.6990  117.8240 H       1  UNL1        0.0785
     15 H          14.2510   29.2590  115.4190 H       1  UNL1        0.0239
     16 H          10.8320   26.6510  111.1210 H       1  UNL1        0.0524
     17 H          13.0960   22.6650  114.8890 H       1  UNL1        0.0234
     18 H          15.4610   22.3740  115.3240 H       1  UNL1        0.0236
     19 H          19.8230   26.7230  118.3880 H       1  UNL1        0.0524
     20 H          16.8240   30.9740  116.7920 H       1  UNL1        0.0524
     21 H           9.2400   30.3440  116.2100 H       1  UNL1        0.0621
     22 H           6.7720   30.2400  116.2360 H       1  UNL1        0.0618
     23 H           5.6130   28.4270  117.4710 H       1  UNL1        0.0618
     24 H           6.9340   26.7080  118.6760 H       1  UNL1        0.0618
     25 H           9.4000   26.7950  118.6580 H       1  UNL1        0.0621
     26 H          15.2810   26.9080  112.6550 H       1  UNL1        0.2129
     27 H          15.5320   24.7300  118.1910 H       1  UNL1        0.0573
     28 H          16.1040   27.0360  116.2490 H       1  UNL1        0.0595
     29 H          17.5430   30.3220  118.2750 H       1  UNL1        0.0524
     30 H          13.7420   28.0290  118.0810 H       1  UNL1        0.0291
     31 H          13.9090   29.3230  120.8250 H       1  UNL1        0.0266
     32 H          11.6750   28.3650  120.0100 H       1  UNL1        0.0267
     33 H          10.6940   30.5090  118.5540 H       1  UNL1        0.0304
     34 H          12.9470   30.3080  114.8430 H       1  UNL1        0.0239
     35 H          11.2180   24.9000  111.1030 H       1  UNL1        0.0524
     36 H          12.3220   22.9450  113.3380 H       1  UNL1        0.0234
     37 H          16.1010   22.6780  116.9300 H       1  UNL1        0.0236
     38 H          18.6280   25.9160  119.4210 H       1  UNL1        0.0524
     39 H          17.5860   29.3860  116.7360 H       1  UNL1        0.0524
     40 H          14.1880   29.7970  113.7250 H       1  UNL1        0.0239
     41 H           9.8240   25.4990  112.0190 H       1  UNL1        0.0524
     42 H          12.1590   24.1380  114.6400 H       1  UNL1        0.0234
     43 H          16.8840   23.4110  115.5220 H       1  UNL1        0.0236
     44 H          18.6260   25.6500  117.6450 H       1  UNL1        0.0524
     45 C          11.8330   27.8180  115.3800 C.2     1  UNL1        0.3158
     46 C          12.7550   28.2090  114.2170 C.3     1  UNL1        0.1098
     47 C          13.6690   27.0220  113.7730 C.3     1  UNL1        0.2096
     48 C          13.0040   26.2090  112.6130 C.3     1  UNL1        0.1386
     49 C          13.8250   24.9280  112.3620 C.3     1  UNL1        0.0913
     50 C          14.1200   24.1410  113.6510 C.3     1  UNL1        0.0117
     51 C          14.7760   25.0710  114.7090 C.3     1  UNL1        0.0730
     52 C          15.0100   24.3780  116.0900 C.3     1  UNL1        0.0011
     53 C          15.5700   25.2270  117.2200 C.2     1  UNL1       -0.0802
     54 C          16.0590   26.4780  117.1810 C.2     1  UNL1       -0.0568
     55 C          16.5430   27.2040  118.4150 C.3     1  UNL1        0.1025
     56 C          15.7470   28.5130  118.7230 C.3     1  UNL1        0.0879
     57 C          14.2640   28.2100  119.0260 C.3     1  UNL1       -0.0239
     58 C          13.5960   29.3710  119.7750 C.3     1  UNL1       -0.0505
     59 C          12.0630   29.3480  119.7210 C.3     1  UNL1       -0.0493
     60 C          11.5140   29.8060  118.3600 C.3     1  UNL1       -0.0114
     61 C          11.0210   28.6480  117.4630 C.3     1  UNL1        0.1280
     62 C          13.5860   29.4590  114.5740 C.3     1  UNL1       -0.0472
     63 C          10.8470   25.7290  111.7100 C.3     1  UNL1        0.0371
     64 C          12.8510   23.4420  114.1590 C.3     1  UNL1       -0.0576
     65 C          15.9130   23.1440  115.9560 C.3     1  UNL1       -0.0566
     66 C          18.7860   26.3810  118.4430 C.3     1  UNL1        0.0373
     67 C          16.9970   30.0590  117.3650 C.3     1  UNL1        0.0369
     68 C           9.5050   28.5810  117.4380 C.ar    1  UNL1       -0.0073
     69 C           8.7440   29.5430  116.7550 C.ar    1  UNL1       -0.0551
     70 C           7.3490   29.4880  116.7680 C.ar    1  UNL1       -0.0614
     71 C           6.6980   28.4710  117.4620 C.ar    1  UNL1       -0.0617
     72 C           7.4410   27.5060  118.1410 C.ar    1  UNL1       -0.0614
     73 C           8.8360   27.5610  118.1300 C.ar    1  UNL1       -0.0551
     74 O          11.3770   26.7060  115.6070 O.2     1  UNL1       -0.2503
     75 O          14.9150   27.5600  113.2860 O.3     1  UNL1       -0.3619
     76 O          11.6340   25.9020  112.8790 O.3     1  UNL1       -0.3718
     77 O          15.0760   25.2980  111.7520 O.3     1  UNL1       -0.3887
     78 O          13.9590   26.2230  114.9220 O.3     1  UNL1       -0.3415
     79 O          17.9400   27.5110  118.2810 O.3     1  UNL1       -0.3732
     80 O          15.7340   29.4850  117.6610 O.3     1  UNL1       -0.3769
     81 O          11.5390   28.9120  116.1440 O.3     1  UNL1       -0.4563
@<TRIPOS>BOND
     1    35    63    1
     2    16    63    1
     3     1    77    1
     4     4    49    1
     5    63    41    1
     6    63    76    1
     7     3    48    1
     8    77    49    1
     9    49    48    1
    10    49    50    1
    11    48    76    1
    12    48    47    1
    13    26    75    1
    14    75    47    1
    15    36    64    1
    16     2    46    1
    17     5    50    1
    18    50    64    1
    19    50    51    1
    20    40    62    1
    21    47    46    1
    22    47    78    1
    23    64    42    1
    24    64    17    1
    25    46    62    1
    26    46    45    1
    27     6    51    1
    28    62    34    1
    29    62    15    1
    30    51    78    1
    31    51    52    1
    32    18    65    1
    33    45    74    2
    34    45    81    1
    35    43    65    1
    36    65    52    1
    37    65    37    1
    38    52     7    1
    39    52    53    1
    40    81    61    1
    41    21    69    1
    42    22    70    1
    43    28    54    1
    44    39    67    1
    45    69    70   ar
    46    69    68   ar
    47    70    71   ar
    48    20    67    1
    49    54    53    2
    50    54    55    1
    51    53    27    1
    52    67    80    1
    53    67    29    1
    54    68    61    1
    55    68    73   ar
    56    71    23    1
    57    71    72   ar
    58    61    14    1
    59    61    60    1
    60    44    66    1
    61    80    56    1
    62    13    60    1
    63    30    57    1
    64    73    72   ar
    65    73    25    1
    66    72    24    1
    67    79    55    1
    68    79    66    1
    69    60    33    1
    70    60    59    1
    71    19    66    1
    72    55    56    1
    73    55     8    1
    74    66    38    1
    75    56    57    1
    76    56     9    1
    77    57    10    1
    78    57    58    1
    79    11    58    1
    80    59    58    1
    81    59    32    1
    82    59    12    1
    83    58    31    1
