@<TRIPOS>MOLECULE
129.99146
 81 83 0 0 0
SMALL
GASTEIGER

@<TRIPOS>ATOM
      1 H          18.8790   29.5030  116.5600 H       1  UNL1        0.2099
      2 H          14.2600   26.7480  114.1390 H       1  UNL1        0.0465
      3 H          16.3910   29.3270  114.2240 H       1  UNL1        0.0676
      4 H          18.7910   28.5130  114.5790 H       1  UNL1        0.0624
      5 H          19.1360   27.1920  116.6940 H       1  UNL1        0.0349
      6 H          16.9410   27.4550  117.7210 H       1  UNL1        0.0606
      7 H          17.2630   24.5000  117.0070 H       1  UNL1        0.0365
      8 H          13.8240   24.1360  119.9290 H       1  UNL1        0.0666
      9 H          13.1140   25.3970  122.0490 H       1  UNL1        0.0625
     10 H          12.3020   25.9750  119.8110 H       1  UNL1        0.0291
     11 H          13.0790   28.5680  121.2370 H       1  UNL1        0.0266
     12 H          10.9610   29.4180  120.5040 H       1  UNL1        0.0267
     13 H          11.5440   29.9650  118.3940 H       1  UNL1        0.0304
     14 H          11.7180   26.9670  117.8440 H       1  UNL1        0.0785
     15 H          13.6440   29.7200  114.5650 H       1  UNL1        0.0239
     16 H          16.6800   28.9390  111.9660 H       1  UNL1        0.0524
     17 H          19.0850   25.0370  115.6200 H       1  UNL1        0.0234
     18 H          19.3750   25.2980  117.9620 H       1  UNL1        0.0236
     19 H          15.3280   21.6440  121.8940 H       1  UNL1        0.0524
     20 H          15.7360   26.9450  123.7740 H       1  UNL1        0.0524
     21 H          10.5100   30.1740  116.1820 H       1  UNL1        0.0621
     22 H           8.2100   30.4450  115.3260 H       1  UNL1        0.0618
     23 H           6.5630   28.6050  115.5680 H       1  UNL1        0.0618
     24 H           7.2300   26.4840  116.6680 H       1  UNL1        0.0618
     25 H           9.5230   26.1970  117.5330 H       1  UNL1        0.0621
     26 H          16.1600   29.3180  116.6700 H       1  UNL1        0.2129
     27 H          15.0760   24.7450  117.9280 H       1  UNL1        0.0573
     28 H          16.6330   25.2870  120.5200 H       1  UNL1        0.0595
     29 H          14.4580   25.7180  123.8460 H       1  UNL1        0.0524
     30 H          13.7240   26.9880  119.5130 H       1  UNL1        0.0291
     31 H          11.7940   27.5150  121.8170 H       1  UNL1        0.0266
     32 H          10.4560   27.8780  119.8370 H       1  UNL1        0.0267
     33 H          13.0070   29.0880  118.7220 H       1  UNL1        0.0304
     34 H          12.6320   28.6100  113.6330 H       1  UNL1        0.0239
     35 H          18.2870   28.2880  112.4240 H       1  UNL1        0.0524
     36 H          19.3560   26.2130  114.3430 H       1  UNL1        0.0234
     37 H          18.5320   24.3520  119.1750 H       1  UNL1        0.0236
     38 H          14.1840   21.9690  120.5780 H       1  UNL1        0.0524
     39 H          16.0100   25.3810  123.0040 H       1  UNL1        0.0524
     40 H          14.2810   28.9490  113.1050 H       1  UNL1        0.0239
     41 H          17.1830   27.3250  111.4270 H       1  UNL1        0.0524
     42 H          17.7520   25.4850  114.5580 H       1  UNL1        0.0234
     43 H          18.5300   26.1260  119.2750 H       1  UNL1        0.0236
     44 H          15.9340   22.3110  120.3690 H       1  UNL1        0.0524
     45 C          13.1080   27.1850  115.8310 C.2     1  UNL1        0.3158
     46 C          14.1570   27.6050  114.8180 C.3     1  UNL1        0.1098
     47 C          15.5010   27.8550  115.5440 C.3     1  UNL1        0.2096
     48 C          16.6200   28.3020  114.5460 C.3     1  UNL1        0.1386
     49 C          17.9770   28.3150  115.2840 C.3     1  UNL1        0.0913
     50 C          18.2630   27.0110  116.0540 C.3     1  UNL1        0.0117
     51 C          17.0590   26.6660  116.9660 C.3     1  UNL1        0.0730
     52 C          17.1980   25.3170  117.7380 C.3     1  UNL1        0.0011
     53 C          15.9410   25.0070  118.5410 C.2     1  UNL1       -0.0802
     54 C          15.8030   25.0050  119.8790 C.2     1  UNL1       -0.0568
     55 C          14.5460   24.6010  120.6140 C.3     1  UNL1        0.1025
     56 C          13.8320   25.7970  121.3200 C.3     1  UNL1        0.0879
     57 C          13.0420   26.6270  120.2900 C.3     1  UNL1       -0.0239
     58 C          12.3310   27.8320  120.9150 C.3     1  UNL1       -0.0505
     59 C          11.3280   28.5260  119.9820 C.3     1  UNL1       -0.0493
     60 C          11.9200   28.9630  118.6350 C.3     1  UNL1       -0.0114
     61 C          11.5920   27.9920  117.4820 C.3     1  UNL1        0.1280
     62 C          13.6540   28.7890  113.9870 C.3     1  UNL1       -0.0472
     63 C          17.2360   28.0420  112.2510 C.3     1  UNL1        0.0371
     64 C          18.6260   25.8760  115.0870 C.3     1  UNL1       -0.0576
     65 C          18.4780   25.2750  118.5860 C.3     1  UNL1       -0.0566
     66 C          15.0950   22.3230  121.0700 C.3     1  UNL1        0.0373
     67 C          15.2510   26.1360  123.2190 C.3     1  UNL1        0.0369
     68 C          10.1840   28.1730  116.9420 C.ar    1  UNL1       -0.0073
     69 C           9.7950   29.3620  116.3050 C.ar    1  UNL1       -0.0551
     70 C           8.4970   29.5180  115.8160 C.ar    1  UNL1       -0.0614
     71 C           7.5730   28.4850  115.9510 C.ar    1  UNL1       -0.0617
     72 C           7.9480   27.2940  116.5700 C.ar    1  UNL1       -0.0614
     73 C           9.2460   27.1370  117.0610 C.ar    1  UNL1       -0.0551
     74 O          12.8340   26.0160  116.0820 O.2     1  UNL1       -0.2503
     75 O          15.2990   28.8750  116.5300 O.3     1  UNL1       -0.3619
     76 O          16.6560   27.4380  113.4000 O.3     1  UNL1       -0.3718
     77 O          17.9710   29.4110  116.2170 O.3     1  UNL1       -0.3887
     78 O          15.8660   26.6160  116.1720 O.3     1  UNL1       -0.3415
     79 O          14.8980   23.6240  121.6120 O.3     1  UNL1       -0.3732
     80 O          14.7250   26.6850  122.0180 O.3     1  UNL1       -0.3769
     81 O          12.5190   28.2640  116.4160 O.3     1  UNL1       -0.4563
@<TRIPOS>BOND
     1    41    63    1
     2    16    63    1
     3    63    35    1
     4    63    76    1
     5    40    62    1
     6    76    48    1
     7    34    62    1
     8    62    15    1
     9    62    46    1
    10     2    46    1
    11     3    48    1
    12    36    64    1
    13    48    49    1
    14    48    47    1
    15    42    64    1
    16     4    49    1
    17    46    47    1
    18    46    45    1
    19    64    17    1
    20    64    50    1
    21    49    50    1
    22    49    77    1
    23    22    70    1
    24    47    78    1
    25    47    75    1
    26    23    71    1
    27    70    71   ar
    28    70    69   ar
    29    45    74    2
    30    45    81    1
    31    71    72   ar
    32    50     5    1
    33    50    51    1
    34    78    51    1
    35    21    69    1
    36    77     1    1
    37    69    68   ar
    38    81    61    1
    39    75    26    1
    40    72    24    1
    41    72    73   ar
    42    68    73   ar
    43    68    61    1
    44    51     6    1
    45    51    52    1
    46     7    52    1
    47    73    25    1
    48    61    14    1
    49    61    60    1
    50    52    53    1
    51    52    65    1
    52    27    53    1
    53    18    65    1
    54    13    60    1
    55    53    54    2
    56    65    37    1
    57    65    43    1
    58    60    33    1
    59    60    59    1
    60    30    57    1
    61    10    57    1
    62    32    59    1
    63    54    28    1
    64    54    55    1
    65     8    55    1
    66    59    12    1
    67    59    58    1
    68    57    58    1
    69    57    56    1
    70    44    66    1
    71    38    66    1
    72    55    56    1
    73    55    79    1
    74    58    11    1
    75    58    31    1
    76    66    79    1
    77    66    19    1
    78    56    80    1
    79    56     9    1
    80    80    67    1
    81    39    67    1
    82    67    20    1
    83    67    29    1
