@<TRIPOS>MOLECULE
146.54511
 81 83 0 0 0
SMALL
GASTEIGER

@<TRIPOS>ATOM
      1 H          15.1440   23.3210  111.5230 H       1  UNL1        0.2099
      2 H          13.5330   28.3650  114.2190 H       1  UNL1        0.0465
      3 H          15.6840   25.6930  113.9170 H       1  UNL1        0.0676
      4 H          16.2530   25.2270  111.4830 H       1  UNL1        0.0624
      5 H          14.2680   24.8600  109.9890 H       1  UNL1        0.0349
      6 H          12.4910   24.8370  111.6440 H       1  UNL1        0.0606
      7 H          12.0740   27.3140  109.8900 H       1  UNL1        0.0365
      8 H           7.2410   26.2320  110.9020 H       1  UNL1        0.0666
      9 H           9.0740   26.8120  113.2450 H       1  UNL1        0.0625
     10 H           6.8570   25.8450  114.1000 H       1  UNL1        0.0291
     11 H           6.5310   27.7730  115.7120 H       1  UNL1        0.0266
     12 H           9.2020   26.4180  115.2390 H       1  UNL1        0.0267
     13 H           9.9510   27.4200  117.4030 H       1  UNL1        0.0304
     14 H           9.6970   29.4740  115.1630 H       1  UNL1        0.0785
     15 H          14.5990   26.2650  116.1750 H       1  UNL1        0.0239
     16 H          17.4650   27.1590  113.8680 H       1  UNL1        0.0524
     17 H          14.2660   27.0720  109.0590 H       1  UNL1        0.0234
     18 H          12.6710   25.4050  108.4450 H       1  UNL1        0.0236
     19 H           8.1830   23.0470  113.2350 H       1  UNL1        0.0524
     20 H           7.3440   29.9000  111.2800 H       1  UNL1        0.0524
     21 H          11.6600   28.5530  118.2680 H       1  UNL1        0.0621
     22 H          12.9430   30.2250  119.5270 H       1  UNL1        0.0618
     23 H          13.2170   32.5270  118.6420 H       1  UNL1        0.0618
     24 H          12.1930   33.1450  116.4680 H       1  UNL1        0.0618
     25 H          10.8930   31.4850  115.1890 H       1  UNL1        0.0621
     26 H          13.6600   24.3400  113.5760 H       1  UNL1        0.2129
     27 H          10.4910   27.2550  111.6850 H       1  UNL1        0.0573
     28 H           9.2360   25.0440  109.9590 H       1  UNL1        0.0595
     29 H           7.4650   28.3950  110.3670 H       1  UNL1        0.0524
     30 H           6.0810   27.2720  113.4270 H       1  UNL1        0.0291
     31 H           7.6710   28.7150  114.7770 H       1  UNL1        0.0266
     32 H           8.0770   26.3140  116.5640 H       1  UNL1        0.0267
     33 H           8.7300   28.6570  117.2550 H       1  UNL1        0.0304
     34 H          14.2670   27.9480  116.6040 H       1  UNL1        0.0239
     35 H          17.5550   26.8970  112.0960 H       1  UNL1        0.0524
     36 H          15.8430   26.8710  109.8070 H       1  UNL1        0.0234
     37 H          10.9490   25.7120  108.3090 H       1  UNL1        0.0236
     38 H           9.5260   23.6950  112.2880 H       1  UNL1        0.0524
     39 H           6.2510   28.5650  111.6760 H       1  UNL1        0.0524
     40 H          15.5060   27.5860  115.4150 H       1  UNL1        0.0239
     41 H          17.4310   28.5370  112.7500 H       1  UNL1        0.0524
     42 H          14.5920   27.8410  110.6100 H       1  UNL1        0.0234
     43 H          11.5300   24.3530  109.2910 H       1  UNL1        0.0236
     44 H           8.9250   24.5740  113.7290 H       1  UNL1        0.0524
     45 C          12.1110   27.2780  115.3700 C.2     1  UNL1        0.3158
     46 C          13.4580   27.3610  114.6580 C.3     1  UNL1        0.1098
     47 C          13.6280   26.2970  113.5400 C.3     1  UNL1        0.2096
     48 C          15.1300   26.1700  113.0960 C.3     1  UNL1        0.1386
     49 C          15.2260   25.2530  111.8600 C.3     1  UNL1        0.0913
     50 C          14.2710   25.6710  110.7290 C.3     1  UNL1        0.0117
     51 C          12.8360   25.8180  111.2890 C.3     1  UNL1        0.0730
     52 C          11.7910   26.3090  110.2310 C.3     1  UNL1        0.0011
     53 C          10.4500   26.4850  110.9130 C.2     1  UNL1       -0.0802
     54 C           9.3010   25.8120  110.7250 C.2     1  UNL1       -0.0568
     55 C           8.0500   25.9430  111.5810 C.3     1  UNL1        0.1025
     56 C           8.1280   27.0000  112.7310 C.3     1  UNL1        0.0879
     57 C           7.0310   26.8860  113.8090 C.3     1  UNL1       -0.0239
     58 C           7.4120   27.6910  115.0640 C.3     1  UNL1       -0.0505
     59 C           8.5410   27.0220  115.8650 C.3     1  UNL1       -0.0493
     60 C           9.3920   28.0070  116.6670 C.3     1  UNL1       -0.0114
     61 C          10.3470   28.8850  115.8210 C.3     1  UNL1        0.1280
     62 C          14.5190   27.2810  115.7710 C.3     1  UNL1       -0.0472
     63 C          17.1110   27.5010  112.8910 C.3     1  UNL1        0.0371
     64 C          14.7710   26.9370  110.0210 C.3     1  UNL1       -0.0576
     65 C          11.7320   25.3910  109.0050 C.3     1  UNL1       -0.0566
     66 C           8.6390   23.9700  112.8660 C.3     1  UNL1        0.0373
     67 C           7.2660   28.8120  111.3580 C.3     1  UNL1        0.0369
     68 C          11.1410   29.8970  116.6420 C.ar    1  UNL1       -0.0073
     69 C          11.7450   29.5600  117.8640 C.ar    1  UNL1       -0.0551
     70 C          12.4850   30.5030  118.5810 C.ar    1  UNL1       -0.0614
     71 C          12.6410   31.7940  118.0840 C.ar    1  UNL1       -0.0617
     72 C          12.0640   32.1410  116.8640 C.ar    1  UNL1       -0.0614
     73 C          11.3250   31.1980  116.1460 C.ar    1  UNL1       -0.0551
     74 O          11.8930   26.5730  116.3500 O.2     1  UNL1       -0.2503
     75 O          13.1530   25.0410  114.0320 O.3     1  UNL1       -0.3619
     76 O          15.6910   27.4660  112.8280 O.3     1  UNL1       -0.3718
     77 O          14.9090   23.9090  112.2650 O.3     1  UNL1       -0.3887
     78 O          12.8330   26.7200  112.4150 O.3     1  UNL1       -0.3415
     79 O           7.6780   24.6310  112.0470 O.3     1  UNL1       -0.3732
     80 O           8.2410   28.3700  112.2880 O.3     1  UNL1       -0.3769
     81 O          11.2570   28.2280  114.9040 O.3     1  UNL1       -0.4563
@<TRIPOS>BOND
     1    37    65    1
     2    18    65    1
     3    65    43    1
     4    65    52    1
     5    17    64    1
     6    36    64    1
     7     7    52    1
     8    28    54    1
     9     5    50    1
    10    64    42    1
    11    64    50    1
    12    52    53    1
    13    52    51    1
    14    29    67    1
    15    54    53    2
    16    54    55    1
    17    50    51    1
    18    50    49    1
    19     8    55    1
    20    53    27    1
    21    20    67    1
    22    51     6    1
    23    51    78    1
    24    67    39    1
    25    67    80    1
    26     4    49    1
    27     1    77    1
    28    55    79    1
    29    55    56    1
    30    49    77    1
    31    49    48    1
    32    79    66    1
    33    35    63    1
    34    38    66    1
    35    80    56    1
    36    78    47    1
    37    56     9    1
    38    56    57    1
    39    41    63    1
    40    76    63    1
    41    76    48    1
    42    66    19    1
    43    66    44    1
    44    63    16    1
    45    48    47    1
    46    48     3    1
    47    30    57    1
    48    47    75    1
    49    47    46    1
    50    26    75    1
    51    57    10    1
    52    57    58    1
    53     2    46    1
    54    46    45    1
    55    46    62    1
    56    31    58    1
    57    81    45    1
    58    81    61    1
    59    58    11    1
    60    58    59    1
    61    14    61    1
    62    25    73    1
    63    12    59    1
    64    45    74    2
    65    40    62    1
    66    62    15    1
    67    62    34    1
    68    61    68    1
    69    61    60    1
    70    59    32    1
    71    59    60    1
    72    73    68   ar
    73    73    72   ar
    74    24    72    1
    75    68    69   ar
    76    60    33    1
    77    60    13    1
    78    72    71   ar
    79    69    21    1
    80    69    70   ar
    81    71    70   ar
    82    71    23    1
    83    70    22    1
