@<TRIPOS>MOLECULE
137.92034
 81 83 0 0 0
SMALL
GASTEIGER

@<TRIPOS>ATOM
      1 H          18.3080   25.6610  114.4260 H       1  UNL1        0.2099
      2 H          12.9190   27.7290  113.2430 H       1  UNL1        0.0465
      3 H          16.2050   28.2390  113.6360 H       1  UNL1        0.0676
      4 H          17.5430   26.3940  112.4700 H       1  UNL1        0.0624
      5 H          17.0570   24.0830  113.2840 H       1  UNL1        0.0349
      6 H          15.6040   24.6220  115.1820 H       1  UNL1        0.0606
      7 H          13.8710   23.0780  113.1910 H       1  UNL1        0.0365
      8 H          11.0680   23.8720  117.1680 H       1  UNL1        0.0666
      9 H          11.9280   22.8460  119.3460 H       1  UNL1        0.0625
     10 H          12.6760   24.8870  120.2680 H       1  UNL1        0.0291
     11 H          13.5460   25.8300  117.5070 H       1  UNL1        0.0266
     12 H          14.3260   27.8300  118.5740 H       1  UNL1        0.0267
     13 H          12.3920   29.0590  119.0640 H       1  UNL1        0.0304
     14 H          11.2230   26.8170  117.3470 H       1  UNL1        0.0785
     15 H          14.3660   29.5660  115.2220 H       1  UNL1        0.0239
     16 H          16.1240   29.3220  111.6010 H       1  UNL1        0.0524
     17 H          15.5370   23.5010  111.4900 H       1  UNL1        0.0234
     18 H          16.1430   22.0600  113.1750 H       1  UNL1        0.0236
     19 H          10.1990   20.6270  116.2210 H       1  UNL1        0.0524
     20 H          15.2800   22.0480  119.9930 H       1  UNL1        0.0524
     21 H          11.5830   30.6070  117.2580 H       1  UNL1        0.0621
     22 H           9.6480   32.1230  117.0260 H       1  UNL1        0.0618
     23 H           7.3470   31.2020  116.9100 H       1  UNL1        0.0618
     24 H           6.9880   28.7500  117.0230 H       1  UNL1        0.0618
     25 H           8.9090   27.2200  117.2550 H       1  UNL1        0.0621
     26 H          16.1000   26.7780  115.6040 H       1  UNL1        0.2129
     27 H          13.3010   21.7110  115.3610 H       1  UNL1        0.0573
     28 H          13.0440   24.6710  115.9700 H       1  UNL1        0.0595
     29 H          14.3060   23.3300  120.7330 H       1  UNL1        0.0524
     30 H          11.5310   25.2980  119.0140 H       1  UNL1        0.0291
     31 H          14.5990   25.4270  118.8390 H       1  UNL1        0.0266
     32 H          13.7640   27.2990  120.1460 H       1  UNL1        0.0267
     33 H          11.4710   27.6710  119.6020 H       1  UNL1        0.0304
     34 H          12.8500   29.9670  114.4040 H       1  UNL1        0.0239
     35 H          16.9400   27.8720  110.9340 H       1  UNL1        0.0524
     36 H          16.4540   24.8980  110.9430 H       1  UNL1        0.0234
     37 H          15.0580   21.0210  114.0700 H       1  UNL1        0.0236
     38 H           9.5450   22.1920  116.7430 H       1  UNL1        0.0524
     39 H          13.5920   21.7130  120.4260 H       1  UNL1        0.0524
     40 H          14.3140   29.7080  113.4590 H       1  UNL1        0.0239
     41 H          15.4450   28.4740  110.1980 H       1  UNL1        0.0524
     42 H          14.7780   25.0870  111.4920 H       1  UNL1        0.0234
     43 H          16.1870   22.0680  114.9460 H       1  UNL1        0.0236
     44 H          10.5920   22.0870  115.2910 H       1  UNL1        0.0524
     45 C          12.3560   27.4960  115.2430 C.2     1  UNL1        0.3158
     46 C          13.4100   27.8700  114.2160 C.3     1  UNL1        0.1098
     47 C          14.6270   26.9160  114.3210 C.3     1  UNL1        0.2096
     48 C          15.7400   27.3060  113.2880 C.3     1  UNL1        0.1386
     49 C          16.8180   26.2050  113.2680 C.3     1  UNL1        0.0913
     50 C          16.2350   24.7880  113.1100 C.3     1  UNL1        0.0117
     51 C          15.1460   24.5480  114.1870 C.3     1  UNL1        0.0730
     52 C          14.4660   23.1340  114.1110 C.3     1  UNL1        0.0011
     53 C          13.5060   22.7750  115.2420 C.2     1  UNL1       -0.0802
     54 C          12.8990   23.6090  116.1020 C.2     1  UNL1       -0.0568
     55 C          11.9650   23.2430  117.2380 C.3     1  UNL1        0.1025
     56 C          12.5690   23.4340  118.6730 C.3     1  UNL1        0.0879
     57 C          12.5360   24.8950  119.1800 C.3     1  UNL1       -0.0239
     58 C          13.6040   25.8170  118.5910 C.3     1  UNL1       -0.0505
     59 C          13.5290   27.2660  119.0750 C.3     1  UNL1       -0.0493
     60 C          12.1990   27.9990  118.8490 C.3     1  UNL1       -0.0114
     61 C          11.5700   27.8520  117.4480 C.3     1  UNL1        0.1280
     62 C          13.7590   29.3580  114.3340 C.3     1  UNL1       -0.0472
     63 C          15.9750   28.3390  111.1450 C.3     1  UNL1        0.0371
     64 C          15.7190   24.5630  111.6820 C.3     1  UNL1       -0.0576
     65 C          15.5240   22.0140  114.0750 C.3     1  UNL1       -0.0566
     66 C          10.4130   21.6970  116.2970 C.3     1  UNL1        0.0373
     67 C          14.2760   22.4790  120.0480 C.3     1  UNL1        0.0369
     68 C          10.3900   28.8000  117.2930 C.ar    1  UNL1       -0.0073
     69 C          10.5790   30.1900  117.2170 C.ar    1  UNL1       -0.0551
     70 C           9.4880   31.0500  117.0830 C.ar    1  UNL1       -0.0614
     71 C           8.1970   30.5320  117.0190 C.ar    1  UNL1       -0.0617
     72 C           7.9950   29.1550  117.0840 C.ar    1  UNL1       -0.0614
     73 C           9.0850   28.2930  117.2200 C.ar    1  UNL1       -0.0551
     74 O          11.4340   26.7190  115.0150 O.2     1  UNL1       -0.2503
     75 O          15.1500   27.0120  115.6510 O.3     1  UNL1       -0.3619
     76 O          15.1780   27.5140  111.9840 O.3     1  UNL1       -0.3718
     77 O          17.5510   26.2710  114.5060 O.3     1  UNL1       -0.3887
     78 O          14.1540   25.5810  114.0630 O.3     1  UNL1       -0.3415
     79 O          11.5550   21.8630  117.1290 O.3     1  UNL1       -0.3732
     80 O          13.8980   22.8880  118.7420 O.3     1  UNL1       -0.3769
     81 O          12.5460   28.1380  116.4340 O.3     1  UNL1       -0.4563
@<TRIPOS>BOND
     1    41    63    1
     2    35    63    1
     3    36    64    1
     4    63    16    1
     5    63    76    1
     6    17    64    1
     7    42    64    1
     8    64    50    1
     9    76    48    1
    10     4    49    1
    11    50    49    1
    12    50     5    1
    13    50    51    1
    14    18    65    1
    15     7    52    1
    16     2    46    1
    17    49    48    1
    18    49    77    1
    19    48     3    1
    20    48    47    1
    21    40    62    1
    22    78    51    1
    23    78    47    1
    24    37    65    1
    25    65    52    1
    26    65    43    1
    27    52    51    1
    28    52    53    1
    29    51     6    1
    30    46    47    1
    31    46    62    1
    32    46    45    1
    33    47    75    1
    34    62    34    1
    35    62    15    1
    36     1    77    1
    37    74    45    2
    38    53    27    1
    39    53    54    2
    40    45    81    1
    41    44    66    1
    42    26    75    1
    43    28    54    1
    44    54    55    1
    45    19    66    1
    46    66    38    1
    47    66    79    1
    48    81    61    1
    49    23    71    1
    50    71    70   ar
    51    71    72   ar
    52    24    72    1
    53    22    70    1
    54    70    69   ar
    55    72    73   ar
    56    79    55    1
    57     8    55    1
    58    69    21    1
    59    69    68   ar
    60    73    25    1
    61    73    68   ar
    62    55    56    1
    63    68    61    1
    64    14    61    1
    65    61    60    1
    66    11    58    1
    67    12    59    1
    68    58    31    1
    69    58    59    1
    70    58    57    1
    71    56    80    1
    72    56    57    1
    73    56     9    1
    74    80    67    1
    75    60    13    1
    76    60    59    1
    77    60    33    1
    78    30    57    1
    79    59    32    1
    80    57    10    1
    81    20    67    1
    82    67    39    1
    83    67    29    1
