@<TRIPOS>MOLECULE
139.67557
 81 83 0 0 0
SMALL
GASTEIGER

@<TRIPOS>ATOM
      1 H          17.6940   27.4570  113.2170 H       1  UNL1        0.2099
      2 H          14.0590   25.8760  117.4890 H       1  UNL1        0.0465
      3 H          16.2220   25.0650  115.1650 H       1  UNL1        0.0676
      4 H          18.1640   26.7390  115.2750 H       1  UNL1        0.0624
      5 H          17.5230   29.1080  114.8600 H       1  UNL1        0.0349
      6 H          15.2200   28.6930  114.1110 H       1  UNL1        0.0606
      7 H          14.9170   30.3840  116.6250 H       1  UNL1        0.0365
      8 H          11.3150   31.5090  113.8640 H       1  UNL1        0.0666
      9 H          11.1970   30.9810  111.1550 H       1  UNL1        0.0625
     10 H           9.9180   28.9950  111.6860 H       1  UNL1        0.0291
     11 H          11.3710   27.8490  113.3430 H       1  UNL1        0.0266
     12 H           8.9310   27.3300  113.2980 H       1  UNL1        0.0267
     13 H           8.4290   26.8620  115.7060 H       1  UNL1        0.0304
     14 H          10.0510   25.2280  116.2480 H       1  UNL1        0.0785
     15 H          13.4890   24.0080  115.1200 H       1  UNL1        0.0239
     16 H          17.2050   23.8870  116.8890 H       1  UNL1        0.0524
     17 H          17.3180   29.7540  117.1920 H       1  UNL1        0.0234
     18 H          16.9590   31.2870  115.6550 H       1  UNL1        0.0236
     19 H          12.3790   34.6670  112.7750 H       1  UNL1        0.0524
     20 H          13.2040   28.3630  109.9450 H       1  UNL1        0.0524
     21 H          11.5270   25.2970  112.9080 H       1  UNL1        0.0621
     22 H          10.7670   23.8360  111.0760 H       1  UNL1        0.0618
     23 H           8.6300   22.5890  111.2710 H       1  UNL1        0.0618
     24 H           7.2510   22.8110  113.3200 H       1  UNL1        0.0618
     25 H           7.9940   24.2670  115.1680 H       1  UNL1        0.0621
     26 H          15.0410   26.5480  113.6110 H       1  UNL1        0.2129
     27 H          12.8060   30.5600  115.6680 H       1  UNL1        0.0573
     28 H          14.2330   31.0090  112.9810 H       1  UNL1        0.0595
     29 H          11.5380   28.0870  110.4650 H       1  UNL1        0.0524
     30 H           9.5680   30.2760  112.8270 H       1  UNL1        0.0291
     31 H          11.0780   29.1400  114.5120 H       1  UNL1        0.0266
     32 H           8.6000   28.7210  114.3050 H       1  UNL1        0.0267
     33 H           9.8620   27.7540  116.1850 H       1  UNL1        0.0304
     34 H          12.9600   23.7190  116.7780 H       1  UNL1        0.0239
     35 H          18.4460   25.1800  116.8280 H       1  UNL1        0.0524
     36 H          18.2570   28.2690  117.1560 H       1  UNL1        0.0234
     37 H          15.6490   32.3540  115.1820 H       1  UNL1        0.0236
     38 H          11.2670   33.7960  113.8480 H       1  UNL1        0.0524
     39 H          11.9640   29.5630  109.5350 H       1  UNL1        0.0524
     40 H          14.6820   23.7640  116.4060 H       1  UNL1        0.0239
     41 H          17.6660   24.7590  118.3630 H       1  UNL1        0.0524
     42 H          16.5510   28.2410  117.6410 H       1  UNL1        0.0234
     43 H          16.3140   31.1940  114.0160 H       1  UNL1        0.0236
     44 H          13.0420   33.6770  114.0880 H       1  UNL1        0.0524
     45 C          12.2940   26.2150  116.4540 C.2     1  UNL1        0.3158
     46 C          13.7300   25.7320  116.4500 C.3     1  UNL1        0.1098
     47 C          14.6700   26.5440  115.5310 C.3     1  UNL1        0.2096
     48 C          16.1490   26.0240  115.6970 C.3     1  UNL1        0.1386
     49 C          17.1300   27.0150  115.0450 C.3     1  UNL1        0.0913
     50 C          16.8800   28.4700  115.4790 C.3     1  UNL1        0.0117
     51 C          15.4060   28.8270  115.1850 C.3     1  UNL1        0.0730
     52 C          15.0090   30.2920  115.5340 C.3     1  UNL1        0.0011
     53 C          13.6360   30.6260  114.9670 C.2     1  UNL1       -0.0802
     54 C          13.4080   30.9810  113.6900 C.2     1  UNL1       -0.0568
     55 C          12.0820   31.3740  113.0910 C.3     1  UNL1        0.1025
     56 C          11.5530   30.3780  112.0020 C.3     1  UNL1        0.0879
     57 C          10.3480   29.5690  112.5150 C.3     1  UNL1       -0.0239
     58 C          10.6450   28.6010  113.6650 C.3     1  UNL1       -0.0505
     59 C           9.3430   27.9350  114.1140 C.3     1  UNL1       -0.0493
     60 C           9.4540   27.1100  115.3980 C.3     1  UNL1       -0.0114
     61 C          10.2550   25.7970  115.3290 C.3     1  UNL1        0.1280
     62 C          13.7190   24.2230  116.1690 C.3     1  UNL1       -0.0472
     63 C          17.5060   24.8600  117.2860 C.3     1  UNL1        0.0371
     64 C          17.2680   28.6900  116.9470 C.3     1  UNL1       -0.0576
     65 C          16.0390   31.3360  115.0670 C.3     1  UNL1       -0.0566
     66 C          12.2390   33.7460  113.3480 C.3     1  UNL1        0.0373
     67 C          12.2960   28.8570  110.3020 C.3     1  UNL1        0.0369
     68 C           9.8200   24.8920  114.1830 C.ar    1  UNL1       -0.0073
     69 C          10.5880   24.7560  113.0150 C.ar    1  UNL1       -0.0551
     70 C          10.1610   23.9310  111.9730 C.ar    1  UNL1       -0.0614
     71 C           8.9610   23.2310  112.0830 C.ar    1  UNL1       -0.0617
     72 C           8.1870   23.3560  113.2340 C.ar    1  UNL1       -0.0614
     73 C           8.6120   24.1810  114.2770 C.ar    1  UNL1       -0.0551
     74 O          11.7140   26.5610  117.4800 O.2     1  UNL1       -0.2503
     75 O          14.2610   26.3700  114.1710 O.3     1  UNL1       -0.3619
     76 O          16.4800   25.8220  117.0810 O.3     1  UNL1       -0.3718
     77 O          16.9890   26.9150  113.6170 O.3     1  UNL1       -0.3887
     78 O          14.5500   27.9260  115.9100 O.3     1  UNL1       -0.3415
     79 O          12.2790   32.6510  112.4420 O.3     1  UNL1       -0.3732
     80 O          12.6070   29.5290  111.5120 O.3     1  UNL1       -0.3769
     81 O          11.6750   26.0050  115.2630 O.3     1  UNL1       -0.4563
@<TRIPOS>BOND
     1    39    67    1
     2    20    67    1
     3    67    29    1
     4    67    80    1
     5    22    70    1
     6     9    56    1
     7    23    71    1
     8    80    56    1
     9    10    57    1
    10    70    71   ar
    11    70    69   ar
    12    56    57    1
    13    56    55    1
    14    71    72   ar
    15    79    55    1
    16    79    66    1
    17    57    30    1
    18    57    58    1
    19    19    66    1
    20    21    69    1
    21    28    54    1
    22    69    68   ar
    23    55    54    1
    24    55     8    1
    25     1    77    1
    26    72    24    1
    27    72    73   ar
    28    12    59    1
    29    11    58    1
    30    66    38    1
    31    66    44    1
    32    26    75    1
    33    77    49    1
    34    58    59    1
    35    58    31    1
    36    54    53    2
    37    43    65    1
    38     6    51    1
    39    59    32    1
    40    59    60    1
    41    75    47    1
    42    68    73   ar
    43    68    61    1
    44    73    25    1
    45     5    50    1
    46    53    52    1
    47    53    27    1
    48    49     4    1
    49    49    50    1
    50    49    48    1
    51    65    37    1
    52    65    52    1
    53    65    18    1
    54    15    62    1
    55     3    48    1
    56    51    50    1
    57    51    52    1
    58    51    78    1
    59    81    61    1
    60    81    45    1
    61    61    60    1
    62    61    14    1
    63    60    13    1
    64    60    33    1
    65    50    64    1
    66    47    48    1
    67    47    78    1
    68    47    46    1
    69    52     7    1
    70    48    76    1
    71    62    40    1
    72    62    46    1
    73    62    34    1
    74    46    45    1
    75    46     2    1
    76    45    74    2
    77    35    63    1
    78    16    63    1
    79    64    36    1
    80    64    17    1
    81    64    42    1
    82    76    63    1
    83    63    41    1
