@<TRIPOS>MOLECULE
133.54063
 81 83 0 0 0
SMALL
GASTEIGER

@<TRIPOS>ATOM
      1 H          17.4620   24.1860  116.0170 H       1  UNL1        0.2099
      2 H          14.2160   28.8380  114.5360 H       1  UNL1        0.0465
      3 H          15.2920   26.7070  116.7930 H       1  UNL1        0.0676
      4 H          17.8130   26.3310  116.4780 H       1  UNL1        0.0624
      5 H          18.4440   25.3520  114.2550 H       1  UNL1        0.0349
      6 H          16.1970   24.8960  113.4120 H       1  UNL1        0.0606
      7 H          17.3700   26.9940  111.5270 H       1  UNL1        0.0365
      8 H          13.7090   25.0980  109.6020 H       1  UNL1        0.0666
      9 H          14.2500   22.1290  109.3140 H       1  UNL1        0.0625
     10 H          12.0500   23.4150  108.6390 H       1  UNL1        0.0291
     11 H          11.3550   22.7580  111.5520 H       1  UNL1        0.0266
     12 H          11.5800   25.5250  110.2670 H       1  UNL1        0.0267
     13 H          10.5170   24.6630  113.0000 H       1  UNL1        0.0304
     14 H          11.0660   27.3860  111.7220 H       1  UNL1        0.0785
     15 H          12.4360   26.9190  116.1310 H       1  UNL1        0.0239
     16 H          15.7510   28.6410  117.9740 H       1  UNL1        0.0524
     17 H          19.0750   27.4470  113.2220 H       1  UNL1        0.0234
     18 H          19.1910   25.4200  112.0550 H       1  UNL1        0.0236
     19 H          14.8670   25.2900  106.2940 H       1  UNL1        0.0524
     20 H          14.1310   21.2440  112.7210 H       1  UNL1        0.0524
     21 H           9.5780   25.9390  114.9220 H       1  UNL1        0.0621
     22 H           7.6340   26.9570  116.0550 H       1  UNL1        0.0618
     23 H           6.5790   29.0020  115.1290 H       1  UNL1        0.0618
     24 H           7.4790   30.0310  113.0590 H       1  UNL1        0.0618
     25 H           9.4170   29.0270  111.9110 H       1  UNL1        0.0621
     26 H          14.8750   24.8870  115.2030 H       1  UNL1        0.2129
     27 H          15.0830   26.3430  110.9730 H       1  UNL1        0.0573
     28 H          16.4870   23.7920  109.9860 H       1  UNL1        0.0595
     29 H          13.0170   20.8670  111.3920 H       1  UNL1        0.0524
     30 H          11.9730   21.8500  109.4120 H       1  UNL1        0.0291
     31 H          10.2860   23.3590  110.3010 H       1  UNL1        0.0266
     32 H          12.5720   24.9260  111.6070 H       1  UNL1        0.0267
     33 H           9.5440   25.3010  111.6650 H       1  UNL1        0.0304
     34 H          12.0420   28.6030  115.7720 H       1  UNL1        0.0239
     35 H          17.4570   28.2060  117.6360 H       1  UNL1        0.0524
     36 H          19.0860   27.7120  114.9620 H       1  UNL1        0.0234
     37 H          18.5760   25.0610  110.4510 H       1  UNL1        0.0236
     38 H          13.7990   26.0210  107.5070 H       1  UNL1        0.0524
     39 H          14.7900   20.7940  111.1360 H       1  UNL1        0.0524
     40 H          13.4470   28.2240  116.7700 H       1  UNL1        0.0239
     41 H          16.8560   29.8300  117.2590 H       1  UNL1        0.0524
     42 H          17.7480   28.3260  113.9720 H       1  UNL1        0.0234
     43 H          18.1210   24.0320  111.8250 H       1  UNL1        0.0236
     44 H          15.5790   26.0160  107.7460 H       1  UNL1        0.0524
     45 C          12.8620   27.7290  113.4080 C.2     1  UNL1        0.3158
     46 C          13.7440   27.8510  114.6400 C.3     1  UNL1        0.1098
     47 C          14.8470   26.7690  114.6700 C.3     1  UNL1        0.2096
     48 C          15.8250   26.9970  115.8770 C.3     1  UNL1        0.1386
     49 C          17.0620   26.0850  115.7210 C.3     1  UNL1        0.0913
     50 C          17.7020   26.1570  114.3200 C.3     1  UNL1        0.0117
     51 C          16.6130   25.9000  113.2570 C.3     1  UNL1        0.0730
     52 C          17.0920   25.9610  111.7730 C.3     1  UNL1        0.0011
     53 C          15.9050   25.6290  110.8840 C.2     1  UNL1       -0.0802
     54 C          15.7230   24.5540  110.0970 C.2     1  UNL1       -0.0568
     55 C          14.4060   24.2770  109.4140 C.3     1  UNL1        0.1025
     56 C          13.7710   22.9320  109.8930 C.3     1  UNL1        0.0879
     57 C          12.2550   22.8980  109.5840 C.3     1  UNL1       -0.0239
     58 C          11.3130   23.4250  110.6830 C.3     1  UNL1       -0.0505
     59 C          11.5850   24.8600  111.1390 C.3     1  UNL1       -0.0493
     60 C          10.5310   25.3460  112.1410 C.3     1  UNL1       -0.0114
     61 C          10.8260   26.7840  112.6070 C.3     1  UNL1        0.1280
     62 C          12.8710   27.8970  115.8990 C.3     1  UNL1       -0.0472
     63 C          16.5900   28.7700  117.2840 C.3     1  UNL1        0.0371
     64 C          18.4360   27.4870  114.1100 C.3     1  UNL1       -0.0576
     65 C          18.3090   25.0660  111.5140 C.3     1  UNL1       -0.0566
     66 C          14.7230   25.4510  107.3650 C.3     1  UNL1        0.0373
     67 C          13.9780   21.3250  111.6410 C.3     1  UNL1        0.0369
     68 C           9.6300   27.3940  113.3190 C.ar    1  UNL1       -0.0073
     69 C           9.1160   26.8290  114.4970 C.ar    1  UNL1       -0.0551
     70 C           8.0210   27.4040  115.1440 C.ar    1  UNL1       -0.0614
     71 C           7.4300   28.5530  114.6240 C.ar    1  UNL1       -0.0617
     72 C           7.9340   29.1300  113.4610 C.ar    1  UNL1       -0.0614
     73 C           9.0300   28.5560  112.8120 C.ar    1  UNL1       -0.0551
     74 O          12.9490   28.4830  112.4430 O.2     1  UNL1       -0.2503
     75 O          14.2230   25.4880  114.7910 O.3     1  UNL1       -0.3619
     76 O          16.2190   28.3750  115.9700 O.3     1  UNL1       -0.3718
     77 O          16.6520   24.7290  115.9770 O.3     1  UNL1       -0.3887
     78 O          15.5590   26.8630  113.4280 O.3     1  UNL1       -0.3415
     79 O          14.6260   24.1790  107.9950 O.3     1  UNL1       -0.3732
     80 O          13.9970   22.7020  111.2930 O.3     1  UNL1       -0.3769
     81 O          11.9140   26.7640  113.5490 O.3     1  UNL1       -0.4563
@<TRIPOS>BOND
     1    19    66    1
     2    66    38    1
     3    66    44    1
     4    66    79    1
     5    79    55    1
     6    10    57    1
     7     9    56    1
     8    30    57    1
     9    55     8    1
    10    55    56    1
    11    55    54    1
    12    57    56    1
    13    57    58    1
    14    56    80    1
    15    28    54    1
    16    54    53    2
    17    12    59    1
    18    31    58    1
    19    37    65    1
    20    58    59    1
    21    58    11    1
    22    53    27    1
    23    53    52    1
    24    39    67    1
    25    59    32    1
    26    59    60    1
    27    80    67    1
    28    29    67    1
    29    65    52    1
    30    65    43    1
    31    65    18    1
    32     7    52    1
    33    67    20    1
    34    33    60    1
    35    14    61    1
    36    52    51    1
    37    25    73    1
    38    60    61    1
    39    60    13    1
    40    74    45    2
    41    61    68    1
    42    61    81    1
    43    73    68   ar
    44    73    72   ar
    45    24    72    1
    46    17    64    1
    47    51     6    1
    48    51    78    1
    49    51    50    1
    50    68    69   ar
    51    45    81    1
    52    45    46    1
    53    78    47    1
    54    72    71   ar
    55    42    64    1
    56    64    50    1
    57    64    36    1
    58     5    50    1
    59    50    49    1
    60    69    21    1
    61    69    70   ar
    62     2    46    1
    63    71    23    1
    64    71    70   ar
    65    46    47    1
    66    46    62    1
    67    47    75    1
    68    47    48    1
    69    75    26    1
    70    70    22    1
    71    49    48    1
    72    49    77    1
    73    49     4    1
    74    34    62    1
    75    48    76    1
    76    48     3    1
    77    62    15    1
    78    62    40    1
    79    76    63    1
    80    77     1    1
    81    41    63    1
    82    63    35    1
    83    63    16    1
