@<TRIPOS>MOLECULE
142.91682
 81 83 0 0 0
SMALL
GASTEIGER

@<TRIPOS>ATOM
      1 H          13.9460   27.1420  108.3140 H       1  UNL1        0.2099
      2 H          12.6340   24.3530  113.3520 H       1  UNL1        0.0465
      3 H          12.9440   24.3390  109.9910 H       1  UNL1        0.0676
      4 H          15.0960   25.5110  109.2840 H       1  UNL1        0.0624
      5 H          15.3030   27.8750  110.0650 H       1  UNL1        0.0349
      6 H          13.0600   28.1960  110.9930 H       1  UNL1        0.0606
      7 H          15.0280   28.3920  113.3180 H       1  UNL1        0.0365
      8 H          11.5790   30.6540  115.1130 H       1  UNL1        0.0666
      9 H           9.7920   32.2940  114.3120 H       1  UNL1        0.0625
     10 H          10.0400   29.8230  112.5280 H       1  UNL1        0.0291
     11 H           8.0820   29.6370  114.6900 H       1  UNL1        0.0266
     12 H           8.7630   27.6100  113.8130 H       1  UNL1        0.0267
     13 H           8.9890   27.6410  116.3990 H       1  UNL1        0.0304
     14 H          10.6810   25.7870  116.6370 H       1  UNL1        0.0785
     15 H          10.6060   23.6840  111.1510 H       1  UNL1        0.0239
     16 H          14.2120   22.4330  110.2350 H       1  UNL1        0.0524
     17 H          16.7170   27.3810  111.9580 H       1  UNL1        0.0234
     18 H          16.0970   29.5070  111.4170 H       1  UNL1        0.0236
     19 H          13.6310   33.2870  116.1720 H       1  UNL1        0.0524
     20 H          10.6980   34.2680  111.5820 H       1  UNL1        0.0524
     21 H           7.3920   26.2710  115.2210 H       1  UNL1        0.0621
     22 H           5.6280   24.5830  115.4280 H       1  UNL1        0.0618
     23 H           6.1800   22.2560  116.0820 H       1  UNL1        0.0618
     24 H           8.5380   21.6260  116.5330 H       1  UNL1        0.0618
     25 H          10.3300   23.3100  116.3400 H       1  UNL1        0.0621
     26 H          11.8590   26.5350  109.9920 H       1  UNL1        0.2129
     27 H          12.8640   28.8190  114.2050 H       1  UNL1        0.0573
     28 H          13.0810   31.3870  112.5260 H       1  UNL1        0.0595
     29 H          10.3680   34.2500  113.3240 H       1  UNL1        0.0524
     30 H           8.5960   30.7460  112.8070 H       1  UNL1        0.0291
     31 H           9.6110   30.0050  115.4360 H       1  UNL1        0.0266
     32 H          10.4760   28.0440  113.7590 H       1  UNL1        0.0267
     33 H          10.6940   27.9540  116.1400 H       1  UNL1        0.0304
     34 H          10.7200   22.8350  112.6970 H       1  UNL1        0.0239
     35 H          15.6430   23.4600  109.8950 H       1  UNL1        0.0524
     36 H          16.7760   25.9640  110.9220 H       1  UNL1        0.0234
     37 H          15.4690   30.7360  112.4930 H       1  UNL1        0.0236
     38 H          12.8410   31.7730  116.6520 H       1  UNL1        0.0524
     39 H          11.9850   33.7860  112.6850 H       1  UNL1        0.0524
     40 H          12.0700   22.7770  111.5700 H       1  UNL1        0.0239
     41 H          15.5950   22.4460  111.3470 H       1  UNL1        0.0524
     42 H          15.7960   25.9510  112.4010 H       1  UNL1        0.0234
     43 H          14.5990   30.3420  110.9940 H       1  UNL1        0.0236
     44 H          14.1450   31.7690  115.4180 H       1  UNL1        0.0524
     45 C          10.7470   25.3200  113.4160 C.2     1  UNL1        0.3158
     46 C          11.8760   24.6840  112.6290 C.3     1  UNL1        0.1098
     47 C          12.5120   25.6900  111.6370 C.3     1  UNL1        0.2096
     48 C          13.5270   24.9550  110.6890 C.3     1  UNL1        0.1386
     49 C          14.3090   25.9970  109.8690 C.3     1  UNL1        0.0913
     50 C          14.9230   27.1010  110.7440 C.3     1  UNL1        0.0117
     51 C          13.8220   27.7330  111.6340 C.3     1  UNL1        0.0730
     52 C          14.3560   28.8540  112.5820 C.3     1  UNL1        0.0011
     53 C          13.2410   29.4710  113.4170 C.2     1  UNL1       -0.0802
     54 C          12.7410   30.7160  113.3100 C.2     1  UNL1       -0.0568
     55 C          11.7460   31.3280  114.2660 C.3     1  UNL1        0.1025
     56 C          10.3670   31.6710  113.6130 C.3     1  UNL1        0.0879
     57 C           9.5270   30.4210  113.2920 C.3     1  UNL1       -0.0239
     58 C           9.1660   29.5870  114.5280 C.3     1  UNL1       -0.0505
     59 C           9.5640   28.1170  114.3590 C.3     1  UNL1       -0.0493
     60 C           9.8190   27.4450  115.7090 C.3     1  UNL1       -0.0114
     61 C          10.1490   25.9360  115.6850 C.3     1  UNL1        0.1280
     62 C          11.2880   23.4280  111.9700 C.3     1  UNL1       -0.0472
     63 C          14.9900   23.0630  110.6760 C.3     1  UNL1        0.0371
     64 C          16.1130   26.5650  111.5530 C.3     1  UNL1       -0.0576
     65 C          15.1700   29.9180  111.8270 C.3     1  UNL1       -0.0566
     66 C          13.2830   32.3150  115.8110 C.3     1  UNL1        0.0373
     67 C          10.9070   33.7430  112.5180 C.3     1  UNL1        0.0369
     68 C           9.0050   24.9330  115.7850 C.ar    1  UNL1       -0.0073
     69 C           7.6680   25.2680  115.5310 C.ar    1  UNL1       -0.0551
     70 C           6.6580   24.3080  115.6410 C.ar    1  UNL1       -0.0614
     71 C           6.9680   23.0000  116.0050 C.ar    1  UNL1       -0.0617
     72 C           8.2910   22.6470  116.2560 C.ar    1  UNL1       -0.0614
     73 C           9.3010   23.6050  116.1460 C.ar    1  UNL1       -0.0551
     74 O           9.6080   25.4640  112.9900 O.2     1  UNL1       -0.2503
     75 O          11.4750   26.2880  110.8570 O.3     1  UNL1       -0.3619
     76 O          14.4120   24.1120  111.4430 O.3     1  UNL1       -0.3718
     77 O          13.4100   26.5970  108.9200 O.3     1  UNL1       -0.3887
     78 O          13.1870   26.7020  112.4160 O.3     1  UNL1       -0.3415
     79 O          12.3130   32.5430  114.7970 O.3     1  UNL1       -0.3732
     80 O          10.4740   32.3980  112.3690 O.3     1  UNL1       -0.3769
     81 O          11.1440   25.5820  114.6950 O.3     1  UNL1       -0.4563
@<TRIPOS>BOND
     1     1    77    1
     2    77    49    1
     3     4    49    1
     4    49    48    1
     5    49    50    1
     6    35    63    1
     7     3    48    1
     8    26    75    1
     9     5    50    1
    10    16    63    1
    11    63    41    1
    12    63    76    1
    13    48    76    1
    14    48    47    1
    15    50    64    1
    16    50    51    1
    17    75    47    1
    18    36    64    1
    19     6    51    1
    20    43    65    1
    21    15    62    1
    22    18    65    1
    23    64    17    1
    24    64    42    1
    25    40    62    1
    26    20    67    1
    27    51    78    1
    28    51    52    1
    29    47    78    1
    30    47    46    1
    31    65    37    1
    32    65    52    1
    33    62    46    1
    34    62    34    1
    35    80    67    1
    36    80    56    1
    37    67    39    1
    38    67    29    1
    39    28    54    1
    40    10    57    1
    41    52     7    1
    42    52    53    1
    43    46     2    1
    44    46    45    1
    45    30    57    1
    46    74    45    2
    47    57    56    1
    48    57    58    1
    49    54    53    2
    50    54    55    1
    51    45    81    1
    52    53    27    1
    53    56    55    1
    54    56     9    1
    55    32    59    1
    56    12    59    1
    57    55    79    1
    58    55     8    1
    59    59    58    1
    60    59    60    1
    61    58    11    1
    62    58    31    1
    63    81    61    1
    64    79    66    1
    65    21    69    1
    66    44    66    1
    67    22    70    1
    68    69    70   ar
    69    69    68   ar
    70    70    71   ar
    71    61    60    1
    72    61    68    1
    73    61    14    1
    74    60    33    1
    75    60    13    1
    76    68    73   ar
    77    66    19    1
    78    66    38    1
    79    71    23    1
    80    71    72   ar
    81    73    72   ar
    82    73    25    1
    83    72    24    1
