@<TRIPOS>MOLECULE
149.17606
 81 83 0 0 0
SMALL
GASTEIGER

@<TRIPOS>ATOM
      1 H          17.5300   28.9650  112.5230 H       1  UNL1        0.2099
      2 H          13.3500   25.0120  113.5620 H       1  UNL1        0.0465
      3 H          15.6020   26.3150  111.6140 H       1  UNL1        0.0676
      4 H          17.6810   26.8170  113.0400 H       1  UNL1        0.0624
      5 H          17.3320   28.4960  114.8290 H       1  UNL1        0.0349
      6 H          15.1100   29.2380  114.0930 H       1  UNL1        0.0606
      7 H          14.6100   28.1600  116.8870 H       1  UNL1        0.0365
      8 H          12.0570   32.0500  116.6340 H       1  UNL1        0.0666
      9 H          10.1980   32.5010  114.9400 H       1  UNL1        0.0625
     10 H           9.4620   31.2650  116.6770 H       1  UNL1        0.0291
     11 H           8.4120   30.2690  114.4780 H       1  UNL1        0.0266
     12 H           8.7720   27.9750  114.0490 H       1  UNL1        0.0267
     13 H           9.0060   27.3270  116.5270 H       1  UNL1        0.0304
     14 H          10.5150   25.5080  116.3610 H       1  UNL1        0.0785
     15 H          12.7140   26.1880  110.8080 H       1  UNL1        0.0239
     16 H          16.2820   24.1200  111.4820 H       1  UNL1        0.0524
     17 H          16.8840   26.9150  116.6370 H       1  UNL1        0.0234
     18 H          16.9390   29.0470  117.0200 H       1  UNL1        0.0236
     19 H          14.0490   34.5370  115.1500 H       1  UNL1        0.0524
     20 H          10.9050   31.4770  111.6790 H       1  UNL1        0.0524
     21 H           7.5220   26.2820  115.0340 H       1  UNL1        0.0621
     22 H           5.9750   24.6610  114.0550 H       1  UNL1        0.0618
     23 H           6.7940   22.4680  113.2380 H       1  UNL1        0.0618
     24 H           9.2040   21.9060  113.4190 H       1  UNL1        0.0618
     25 H          10.7830   23.5190  114.4010 H       1  UNL1        0.0621
     26 H          14.7010   28.5150  112.0260 H       1  UNL1        0.2129
     27 H          13.4680   30.2540  117.3580 H       1  UNL1        0.0573
     28 H          13.3710   30.4840  114.3020 H       1  UNL1        0.0595
     29 H          10.6390   32.8730  112.7400 H       1  UNL1        0.0524
     30 H          10.6530   30.0120  116.5380 H       1  UNL1        0.0291
     31 H           8.1430   29.4770  116.0190 H       1  UNL1        0.0266
     32 H          10.4000   28.6360  114.1420 H       1  UNL1        0.0267
     33 H          10.6840   27.8430  116.4270 H       1  UNL1        0.0304
     34 H          12.1250   24.6450  111.4310 H       1  UNL1        0.0239
     35 H          17.6550   24.6720  112.4940 H       1  UNL1        0.0524
     36 H          17.6990   26.0320  115.3520 H       1  UNL1        0.0234
     37 H          15.8570   30.1810  117.7950 H       1  UNL1        0.0236
     38 H          13.4000   33.9030  116.6750 H       1  UNL1        0.0524
     39 H          12.2430   32.0650  112.6660 H       1  UNL1        0.0524
     40 H          13.8490   24.8720  111.1570 H       1  UNL1        0.0239
     41 H          16.6960   23.2620  112.9790 H       1  UNL1        0.0524
     42 H          15.9510   25.8580  115.5960 H       1  UNL1        0.0234
     43 H          16.4540   30.5180  116.1630 H       1  UNL1        0.0236
     44 H          14.6190   32.9690  115.7460 H       1  UNL1        0.0524
     45 C          11.7150   26.3060  113.4370 C.2     1  UNL1        0.3158
     46 C          13.0870   25.8830  112.9450 C.3     1  UNL1        0.1098
     47 C          14.1710   26.9790  113.1140 C.3     1  UNL1        0.2096
     48 C          15.5740   26.3750  112.7110 C.3     1  UNL1        0.1386
     49 C          16.7100   27.3040  113.1720 C.3     1  UNL1        0.0913
     50 C          16.5560   27.7440  114.6390 C.3     1  UNL1        0.0117
     51 C          15.1710   28.4090  114.8060 C.3     1  UNL1        0.0730
     52 C          14.8840   28.9940  116.2280 C.3     1  UNL1        0.0011
     53 C          13.7480   30.0100  116.3330 C.2     1  UNL1       -0.0802
     54 C          13.1420   30.6900  115.3440 C.2     1  UNL1       -0.0568
     55 C          12.1710   31.8320  115.5630 C.3     1  UNL1        0.1025
     56 C          10.7500   31.5520  114.9860 C.3     1  UNL1        0.0879
     57 C           9.9660   30.6220  115.9430 C.3     1  UNL1       -0.0239
     58 C           8.9180   29.7220  115.2830 C.3     1  UNL1       -0.0505
     59 C           9.5070   28.4140  114.7300 C.3     1  UNL1       -0.0493
     60 C           9.8590   27.4180  115.8420 C.3     1  UNL1       -0.0114
     61 C          10.3010   26.0070  115.4030 C.3     1  UNL1        0.1280
     62 C          12.9410   25.3730  111.5040 C.3     1  UNL1       -0.0472
     63 C          16.6480   24.2470  112.5050 C.3     1  UNL1        0.0371
     64 C          16.7800   26.5710  115.6040 C.3     1  UNL1       -0.0576
     65 C          16.1010   29.7220  116.8290 C.3     1  UNL1       -0.0566
     66 C          13.7470   33.6260  115.6750 C.3     1  UNL1        0.0373
     67 C          11.1610   31.9160  112.6480 C.3     1  UNL1        0.0369
     68 C           9.2940   25.0510  114.7700 C.ar    1  UNL1       -0.0073
     69 C           7.9240   25.3370  114.6810 C.ar    1  UNL1       -0.0551
     70 C           7.0310   24.4130  114.1290 C.ar    1  UNL1       -0.0614
     71 C           7.4890   23.1810  113.6700 C.ar    1  UNL1       -0.0617
     72 C           8.8410   22.8680  113.7710 C.ar    1  UNL1       -0.0614
     73 C           9.7320   23.7900  114.3220 C.ar    1  UNL1       -0.0551
     74 O          10.8050   26.6850  112.7120 O.2     1  UNL1       -0.2503
     75 O          13.8590   28.0750  112.2500 O.3     1  UNL1       -0.3619
     76 O          15.7560   25.0570  113.2580 O.3     1  UNL1       -0.3718
     77 O          16.7160   28.4650  112.3240 O.3     1  UNL1       -0.3887
     78 O          14.1600   27.4360  114.4800 O.3     1  UNL1       -0.3415
     79 O          12.7020   33.0130  114.9320 O.3     1  UNL1       -0.3732
     80 O          10.7570   31.0070  113.6600 O.3     1  UNL1       -0.3769
     81 O          11.5990   26.0140  114.7630 O.3     1  UNL1       -0.4563
@<TRIPOS>BOND
     1    15    62    1
     2    40    62    1
     3    34    62    1
     4    16    63    1
     5    62    46    1
     6     3    48    1
     7    20    67    1
     8    26    75    1
     9    75    47    1
    10    77     1    1
    11    77    49    1
    12    35    63    1
    13    63    41    1
    14    63    76    1
    15    67    39    1
    16    67    29    1
    17    67    80    1
    18    48    47    1
    19    48    49    1
    20    48    76    1
    21    74    45    2
    22    46    47    1
    23    46    45    1
    24    46     2    1
    25     4    49    1
    26    47    78    1
    27    49    50    1
    28    23    71    1
    29    24    72    1
    30    45    81    1
    31    80    56    1
    32    71    72   ar
    33    71    70   ar
    34    72    73   ar
    35    12    59    1
    36    22    70    1
    37     6    51    1
    38    70    69   ar
    39    32    59    1
    40    28    54    1
    41    73    25    1
    42    73    68   ar
    43    11    58    1
    44    78    51    1
    45    50    51    1
    46    50     5    1
    47    50    64    1
    48    69    68   ar
    49    69    21    1
    50    59    58    1
    51    59    60    1
    52    81    61    1
    53    68    61    1
    54    51    52    1
    55    79    55    1
    56    79    66    1
    57     9    56    1
    58    56    55    1
    59    56    57    1
    60    19    66    1
    61    58    57    1
    62    58    31    1
    63    54    55    1
    64    54    53    2
    65    36    64    1
    66    61    60    1
    67    61    14    1
    68    55     8    1
    69    42    64    1
    70    64    17    1
    71    66    44    1
    72    66    38    1
    73    60    33    1
    74    60    13    1
    75    57    30    1
    76    57    10    1
    77    43    65    1
    78    52    53    1
    79    52    65    1
    80    52     7    1
    81    53    27    1
    82    65    18    1
    83    65    37    1
