@<TRIPOS>MOLECULE
137.74952
 81 83 0 0 0
SMALL
GASTEIGER

@<TRIPOS>ATOM
      1 H           5.3330   30.5480  120.3790 H       1  UNL1        0.2099
      2 H           7.8400   29.0790  115.2570 H       1  UNL1        0.0465
      3 H           5.4280   28.6830  117.5160 H       1  UNL1        0.0676
      4 H           4.5800   30.9560  118.3320 H       1  UNL1        0.0624
      5 H           6.3310   32.4040  119.3880 H       1  UNL1        0.0349
      6 H           8.2050   30.8340  119.4550 H       1  UNL1        0.0606
      7 H           8.9920   33.0350  117.4910 H       1  UNL1        0.0365
      8 H          13.1530   31.3130  118.4840 H       1  UNL1        0.0666
      9 H          14.6050   31.9860  120.6740 H       1  UNL1        0.0625
     10 H          14.1540   29.7850  121.7020 H       1  UNL1        0.0291
     11 H          11.5870   29.8790  120.5480 H       1  UNL1        0.0266
     12 H          13.1830   27.5530  119.3640 H       1  UNL1        0.0267
     13 H          10.4700   28.8070  118.7340 H       1  UNL1        0.0304
     14 H          11.7930   27.5290  116.8140 H       1  UNL1        0.0785
     15 H           7.2210   26.5460  116.8710 H       1  UNL1        0.0239
     16 H           4.0000   28.8620  115.7090 H       1  UNL1        0.0524
     17 H           6.7170   33.7650  117.4280 H       1  UNL1        0.0234
     18 H           7.8080   34.0700  119.4220 H       1  UNL1        0.0236
     19 H          14.2480   34.4400  117.3360 H       1  UNL1        0.0524
     20 H          13.0050   32.7030  123.6740 H       1  UNL1        0.0524
     21 H           9.6130   25.1240  118.7660 H       1  UNL1        0.0621
     22 H          10.2540   22.7710  119.1570 H       1  UNL1        0.0618
     23 H          12.4660   21.9370  118.4000 H       1  UNL1        0.0618
     24 H          14.0390   23.4700  117.2480 H       1  UNL1        0.0618
     25 H          13.4160   25.8230  116.8510 H       1  UNL1        0.0621
     26 H           7.1320   28.8190  119.2670 H       1  UNL1        0.2129
     27 H          10.7670   31.3210  117.7240 H       1  UNL1        0.0573
     28 H          11.2920   33.1740  120.1170 H       1  UNL1        0.0595
     29 H          14.2520   31.5350  123.1930 H       1  UNL1        0.0524
     30 H          14.5170   29.7100  119.9880 H       1  UNL1        0.0291
     31 H          12.3490   28.5340  121.3660 H       1  UNL1        0.0266
     32 H          12.9010   29.0080  118.4080 H       1  UNL1        0.0267
     33 H          10.6650   27.3520  119.6770 H       1  UNL1        0.0304
     34 H           7.7030   26.5660  115.1720 H       1  UNL1        0.0239
     35 H           3.6000   30.4720  116.3890 H       1  UNL1        0.0524
     36 H           5.1840   32.9480  117.1690 H       1  UNL1        0.0234
     37 H           9.5120   34.4410  119.4800 H       1  UNL1        0.0236
     38 H          14.1120   32.7130  116.9570 H       1  UNL1        0.0524
     39 H          14.3100   33.2250  122.5920 H       1  UNL1        0.0524
     40 H           6.1910   27.3300  115.6650 H       1  UNL1        0.0239
     41 H           4.0850   30.3130  114.6920 H       1  UNL1        0.0524
     42 H           6.6470   32.3860  116.3370 H       1  UNL1        0.0234
     43 H           8.8430   33.1890  120.5520 H       1  UNL1        0.0236
     44 H          12.6390   33.7170  117.1630 H       1  UNL1        0.0524
     45 C           9.4660   28.2530  116.2770 C.2     1  UNL1        0.3158
     46 C           7.9710   28.4800  116.1690 C.3     1  UNL1        0.1098
     47 C           7.5040   29.2940  117.4030 C.3     1  UNL1        0.2096
     48 C           5.9750   29.6170  117.3250 C.3     1  UNL1        0.1386
     49 C           5.6190   30.6250  118.4380 C.3     1  UNL1        0.0913
     50 C           6.5520   31.8510  118.4670 C.3     1  UNL1        0.0117
     51 C           8.0310   31.3860  118.5220 C.3     1  UNL1        0.0730
     52 C           9.0780   32.5490  118.4730 C.3     1  UNL1        0.0011
     53 C          10.5200   32.0340  118.5130 C.2     1  UNL1       -0.0802
     54 C          11.5010   32.4410  119.3420 C.2     1  UNL1       -0.0568
     55 C          12.9640   32.0580  119.2650 C.3     1  UNL1        0.1025
     56 C          13.5930   31.5610  120.6140 C.3     1  UNL1        0.0879
     57 C          13.7550   30.0310  120.7100 C.3     1  UNL1       -0.0239
     58 C          12.4660   29.2270  120.5230 C.3     1  UNL1       -0.0505
     59 C          12.5040   28.4040  119.2320 C.3     1  UNL1       -0.0493
     60 C          11.1080   27.9230  118.8510 C.3     1  UNL1       -0.0114
     61 C          11.0940   27.1050  117.5460 C.3     1  UNL1        0.1280
     62 C           7.2290   27.1580  115.9630 C.3     1  UNL1       -0.0472
     63 C           4.2510   29.9270  115.7010 C.3     1  UNL1        0.0371
     64 C           6.2600   32.7820  117.2810 C.3     1  UNL1       -0.0576
     65 C           8.7940   33.6160  119.5430 C.3     1  UNL1       -0.0566
     66 C          13.6590   33.5370  117.5150 C.3     1  UNL1        0.0373
     67 C          13.6560   32.3870  122.8550 C.3     1  UNL1        0.0369
     68 C          11.4660   25.6520  117.7800 C.ar    1  UNL1       -0.0073
     69 C          10.5870   24.7710  118.4310 C.ar    1  UNL1       -0.0551
     70 C          10.9460   23.4410  118.6530 C.ar    1  UNL1       -0.0614
     71 C          12.1870   22.9730  118.2280 C.ar    1  UNL1       -0.0617
     72 C          13.0700   23.8350  117.5810 C.ar    1  UNL1       -0.0614
     73 C          12.7130   25.1660  117.3580 C.ar    1  UNL1       -0.0551
     74 O          10.3080   29.0090  115.8020 O.2     1  UNL1       -0.2503
     75 O           7.7670   28.5240  118.5830 O.3     1  UNL1       -0.3619
     76 O           5.6200   30.1190  116.0290 O.3     1  UNL1       -0.3718
     77 O           5.7040   29.9470  119.7050 O.3     1  UNL1       -0.3887
     78 O           8.2770   30.5050  117.4170 O.3     1  UNL1       -0.3415
     79 O          13.6820   33.2660  118.9120 O.3     1  UNL1       -0.3732
     80 O          12.8380   32.0330  121.7490 O.3     1  UNL1       -0.3769
     81 O           9.7560   27.1470  117.0180 O.3     1  UNL1       -0.4563
@<TRIPOS>BOND
     1    41    63    1
     2    34    62    1
     3     2    46    1
     4    40    62    1
     5    63    16    1
     6    63    76    1
     7    63    35    1
     8    74    45    2
     9    62    46    1
    10    62    15    1
    11    76    48    1
    12    46    45    1
    13    46    47    1
    14    45    81    1
    15    42    64    1
    16    14    61    1
    17    25    73    1
    18    38    66    1
    19    81    61    1
    20    44    66    1
    21    36    64    1
    22    24    72    1
    23    64    17    1
    24    64    50    1
    25    48    47    1
    26    48     3    1
    27    48    49    1
    28    19    66    1
    29    73    72   ar
    30    73    68   ar
    31    47    78    1
    32    47    75    1
    33    78    51    1
    34     7    52    1
    35    66    79    1
    36    61    68    1
    37    61    60    1
    38    72    71   ar
    39    27    53    1
    40    68    69   ar
    41    71    23    1
    42    71    70   ar
    43     4    49    1
    44    32    59    1
    45    69    70   ar
    46    69    21    1
    47    49    50    1
    48    49    77    1
    49    50    51    1
    50    50     5    1
    51    52    53    1
    52    52    51    1
    53    52    65    1
    54     8    55    1
    55    53    54    2
    56    51     6    1
    57    75    26    1
    58    70    22    1
    59    13    60    1
    60    60    59    1
    61    60    33    1
    62    79    55    1
    63    59    12    1
    64    59    58    1
    65    55    54    1
    66    55    56    1
    67    54    28    1
    68    18    65    1
    69    37    65    1
    70    65    43    1
    71    77     1    1
    72    30    57    1
    73    58    11    1
    74    58    57    1
    75    58    31    1
    76    56     9    1
    77    56    57    1
    78    56    80    1
    79    57    10    1
    80    80    67    1
    81    39    67    1
    82    67    29    1
    83    67    20    1
