@<TRIPOS>MOLECULE
138.61774
 81 83 0 0 0
SMALL
GASTEIGER

@<TRIPOS>ATOM
      1 H          15.4850   26.4810  111.7710 H       1  UNL1        0.2099
      2 H          10.6570   28.7510  114.1150 H       1  UNL1        0.0465
      3 H          13.2360   28.9840  112.3200 H       1  UNL1        0.0676
      4 H          13.5320   26.9100  110.8250 H       1  UNL1        0.0624
      5 H          13.9310   24.7690  112.1100 H       1  UNL1        0.0349
      6 H          14.0770   25.7070  114.3460 H       1  UNL1        0.0606
      7 H          11.5910   23.9310  114.3060 H       1  UNL1        0.0365
      8 H          11.7560   25.1230  118.5070 H       1  UNL1        0.0666
      9 H          13.1890   22.6140  119.4770 H       1  UNL1        0.0625
     10 H          13.7500   23.7350  121.4190 H       1  UNL1        0.0291
     11 H          14.5740   25.9300  120.5200 H       1  UNL1        0.0266
     12 H          12.5940   27.6970  121.1110 H       1  UNL1        0.0267
     13 H          13.3380   26.6340  118.3580 H       1  UNL1        0.0304
     14 H          10.9800   27.5640  118.3940 H       1  UNL1        0.0785
     15 H          12.9460   30.4530  115.2400 H       1  UNL1        0.0239
     16 H          11.6520   29.8300  110.8600 H       1  UNL1        0.0524
     17 H          11.6680   23.9580  111.9320 H       1  UNL1        0.0234
     18 H          13.5230   22.7690  113.2280 H       1  UNL1        0.0236
     19 H           8.7210   23.5550  119.2390 H       1  UNL1        0.0524
     20 H          16.3720   23.7760  118.5210 H       1  UNL1        0.0524
     21 H          13.4810   30.4380  118.5710 H       1  UNL1        0.0621
     22 H          12.9810   32.5710  119.7120 H       1  UNL1        0.0618
     23 H          10.7880   32.9090  120.8230 H       1  UNL1        0.0618
     24 H           9.0890   31.1020  120.7830 H       1  UNL1        0.0618
     25 H           9.5720   28.9650  119.6490 H       1  UNL1        0.0621
     26 H          14.5810   27.8580  114.0130 H       1  UNL1        0.2129
     27 H          12.9440   25.3550  116.4680 H       1  UNL1        0.0573
     28 H          11.6280   22.6120  116.8080 H       1  UNL1        0.0595
     29 H          15.7140   23.4680  120.1390 H       1  UNL1        0.0524
     30 H          12.0880   24.2160  121.1930 H       1  UNL1        0.0291
     31 H          13.6640   25.9650  122.0110 H       1  UNL1        0.0266
     32 H          11.5860   26.4710  120.3700 H       1  UNL1        0.0267
     33 H          13.9050   28.0710  119.1440 H       1  UNL1        0.0304
     34 H          11.2510   30.9220  115.1410 H       1  UNL1        0.0239
     35 H          12.0310   28.3370  109.9410 H       1  UNL1        0.0524
     36 H          11.8720   25.1720  110.6740 H       1  UNL1        0.0234
     37 H          13.2330   22.0820  114.8220 H       1  UNL1        0.0236
     38 H           9.5650   25.1150  119.1610 H       1  UNL1        0.0524
     39 H          15.3760   22.3330  118.7910 H       1  UNL1        0.0524
     40 H          12.1730   30.6550  113.6570 H       1  UNL1        0.0239
     41 H          10.3490   28.7560  110.3140 H       1  UNL1        0.0524
     42 H          10.9700   25.5620  112.1510 H       1  UNL1        0.0234
     43 H          14.5740   23.2120  114.5840 H       1  UNL1        0.0236
     44 H           9.3810   24.1080  117.6870 H       1  UNL1        0.0524
     45 C          11.1870   28.4220  116.0930 C.2     1  UNL1        0.3158
     46 C          11.5920   28.8270  114.6870 C.3     1  UNL1        0.1098
     47 C          12.6230   27.8550  114.0690 C.3     1  UNL1        0.2096
     48 C          12.7220   28.0320  112.5140 C.3     1  UNL1        0.1386
     49 C          13.5690   26.8810  111.9190 C.3     1  UNL1        0.0913
     50 C          13.1490   25.4770  112.4120 C.3     1  UNL1        0.0117
     51 C          13.0750   25.4870  113.9510 C.3     1  UNL1        0.0730
     52 C          12.6120   24.1640  114.6340 C.3     1  UNL1        0.0011
     53 C          12.5530   24.3940  116.1310 C.2     1  UNL1       -0.0802
     54 C          12.0320   23.5840  117.0670 C.2     1  UNL1       -0.0568
     55 C          11.9120   24.0430  118.5050 C.3     1  UNL1        0.1025
     56 C          13.1680   23.7070  119.3590 C.3     1  UNL1        0.0879
     57 C          13.0940   24.3330  120.7720 C.3     1  UNL1       -0.0239
     58 C          13.5660   25.7940  120.9300 C.3     1  UNL1       -0.0505
     59 C          12.6080   26.8650  120.3950 C.3     1  UNL1       -0.0493
     60 C          13.0180   27.4360  119.0280 C.3     1  UNL1       -0.0114
     61 C          11.8640   28.2120  118.3570 C.3     1  UNL1        0.1280
     62 C          12.0200   30.2940  114.6780 C.3     1  UNL1       -0.0472
     63 C          11.3750   28.7850  110.6920 C.3     1  UNL1        0.0371
     64 C          11.8380   25.0250  111.7590 C.3     1  UNL1       -0.0576
     65 C          13.5380   22.9940  114.2990 C.3     1  UNL1       -0.0566
     66 C           9.5480   24.0930  118.7670 C.3     1  UNL1        0.0373
     67 C          15.5110   23.3830  119.0680 C.3     1  UNL1        0.0369
     68 C          11.5720   29.5330  119.0440 C.ar    1  UNL1       -0.0073
     69 C          12.5190   30.5690  119.0630 C.ar    1  UNL1       -0.0551
     70 C          12.2390   31.7770  119.7030 C.ar    1  UNL1       -0.0614
     71 C          11.0070   31.9670  120.3260 C.ar    1  UNL1       -0.0617
     72 C          10.0530   30.9520  120.3060 C.ar    1  UNL1       -0.0614
     73 C          10.3330   29.7420  119.6670 C.ar    1  UNL1       -0.0551
     74 O          10.0270   28.1450  116.3890 O.2     1  UNL1       -0.2503
     75 O          13.8990   28.1040  114.6700 O.3     1  UNL1       -0.3619
     76 O          11.4190   28.0580  111.9120 O.3     1  UNL1       -0.3718
     77 O          14.9430   27.1060  112.2890 O.3     1  UNL1       -0.3887
     78 O          12.1780   26.5270  114.3660 O.3     1  UNL1       -0.3415
     79 O          10.7600   23.4160  119.0910 O.3     1  UNL1       -0.3732
     80 O          14.3690   24.1440  118.7020 O.3     1  UNL1       -0.3769
     81 O          12.2160   28.4790  116.9830 O.3     1  UNL1       -0.4563
@<TRIPOS>BOND
     1    35    63    1
     2    41    63    1
     3    36    64    1
     4    63    16    1
     5    63    76    1
     6     4    49    1
     7    64    17    1
     8    64    42    1
     9    64    50    1
    10     1    77    1
    11    76    48    1
    12    49    77    1
    13    49    50    1
    14    49    48    1
    15     5    50    1
    16     3    48    1
    17    50    51    1
    18    48    47    1
    19    18    65    1
    20    40    62    1
    21    51     6    1
    22    51    78    1
    23    51    52    1
    24    26    75    1
    25    47    78    1
    26    47    75    1
    27    47    46    1
    28     2    46    1
    29    65    43    1
    30    65    52    1
    31    65    37    1
    32     7    52    1
    33    52    53    1
    34    62    46    1
    35    62    34    1
    36    62    15    1
    37    46    45    1
    38    45    74    2
    39    45    81    1
    40    53    27    1
    41    53    54    2
    42    28    54    1
    43    81    61    1
    44    54    55    1
    45    44    66    1
    46    61    14    1
    47    61    60    1
    48    61    68    1
    49    13    60    1
    50    55     8    1
    51    55    79    1
    52    55    56    1
    53    20    67    1
    54    21    69    1
    55    80    67    1
    56    80    56    1
    57    66    79    1
    58    66    38    1
    59    66    19    1
    60    39    67    1
    61    60    33    1
    62    60    59    1
    63    68    69   ar
    64    68    73   ar
    65    69    70   ar
    66    67    29    1
    67    56     9    1
    68    56    57    1
    69    25    73    1
    70    73    72   ar
    71    70    22    1
    72    70    71   ar
    73    72    71   ar
    74    72    24    1
    75    71    23    1
    76    32    59    1
    77    59    58    1
    78    59    12    1
    79    11    58    1
    80    57    58    1
    81    57    30    1
    82    57    10    1
    83    58    31    1
