@<TRIPOS>MOLECULE
130.09575
 81 83 0 0 0
SMALL
GASTEIGER

@<TRIPOS>ATOM
      1 H          17.3160   32.3180  115.1850 H       1  UNL1        0.2099
      2 H          16.3220   26.7680  116.8620 H       1  UNL1        0.0465
      3 H          17.7720   28.9590  114.7710 H       1  UNL1        0.0676
      4 H          18.7350   30.8990  116.1390 H       1  UNL1        0.0624
      5 H          17.0730   32.1470  117.5090 H       1  UNL1        0.0349
      6 H          15.0350   31.1290  116.5950 H       1  UNL1        0.0606
      7 H          15.0370   30.3300  119.5350 H       1  UNL1        0.0365
      8 H          10.2300   31.5120  119.2000 H       1  UNL1        0.0666
      9 H          10.8950   29.1730  118.2820 H       1  UNL1        0.0625
     10 H          11.7820   30.2020  116.0420 H       1  UNL1        0.0291
     11 H           9.7630   27.9160  115.8050 H       1  UNL1        0.0266
     12 H          12.3710   28.6330  114.3560 H       1  UNL1        0.0267
     13 H          11.9340   26.6550  112.9710 H       1  UNL1        0.0304
     14 H          12.0910   25.8280  115.9210 H       1  UNL1        0.0785
     15 H          16.1180   26.9470  113.8120 H       1  UNL1        0.0239
     16 H          19.7330   27.8380  115.2090 H       1  UNL1        0.0524
     17 H          17.4830   30.9630  119.5900 H       1  UNL1        0.0234
     18 H          16.0140   32.6070  119.4920 H       1  UNL1        0.0236
     19 H           8.8220   33.6110  116.7890 H       1  UNL1        0.0524
     20 H           7.4850   29.0360  119.0340 H       1  UNL1        0.0524
     21 H          13.7880   24.9810  112.6270 H       1  UNL1        0.0621
     22 H          14.0520   22.6540  111.8440 H       1  UNL1        0.0618
     23 H          13.1240   20.7760  113.1740 H       1  UNL1        0.0618
     24 H          11.9260   21.2350  115.2970 H       1  UNL1        0.0618
     25 H          11.6500   23.5520  116.0940 H       1  UNL1        0.0621
     26 H          15.6260   30.1260  114.6650 H       1  UNL1        0.2129
     27 H          13.0550   29.6670  118.2420 H       1  UNL1        0.0573
     28 H          12.4240   32.6270  118.7740 H       1  UNL1        0.0595
     29 H           9.0480   28.2260  119.2520 H       1  UNL1        0.0524
     30 H          10.0850   30.3350  115.5630 H       1  UNL1        0.0291
     31 H          11.3570   27.7510  116.5340 H       1  UNL1        0.0266
     32 H          10.7570   28.6310  113.6650 H       1  UNL1        0.0267
     33 H          10.5740   26.1770  113.9820 H       1  UNL1        0.0304
     34 H          16.2200   25.4370  114.7290 H       1  UNL1        0.0239
     35 H          20.1710   29.2300  116.2510 H       1  UNL1        0.0524
     36 H          18.8650   30.6550  118.5480 H       1  UNL1        0.0234
     37 H          14.3650   32.6920  120.0620 H       1  UNL1        0.0236
     38 H           8.4740   31.8830  116.7210 H       1  UNL1        0.0524
     39 H           8.8040   29.9010  119.8440 H       1  UNL1        0.0524
     40 H          17.5570   26.5770  114.7720 H       1  UNL1        0.0239
     41 H          20.2260   27.5810  116.8940 H       1  UNL1        0.0524
     42 H          17.6240   29.4100  118.7860 H       1  UNL1        0.0234
     43 H          14.7510   33.1660  118.3930 H       1  UNL1        0.0236
     44 H           8.5470   32.7320  118.3030 H       1  UNL1        0.0524
     45 C          14.3750   26.7730  116.1150 C.2     1  UNL1        0.3158
     46 C          15.8310   27.1880  115.9730 C.3     1  UNL1        0.1098
     47 C          15.9840   28.7300  115.9860 C.3     1  UNL1        0.2096
     48 C          17.4970   29.1320  115.8210 C.3     1  UNL1        0.1386
     49 C          17.6730   30.6320  116.1250 C.3     1  UNL1        0.0913
     50 C          17.0220   31.0530  117.4550 C.3     1  UNL1        0.0117
     51 C          15.5360   30.6320  117.4370 C.3     1  UNL1        0.0730
     52 C          14.7280   31.0030  118.7240 C.3     1  UNL1        0.0011
     53 C          13.2450   30.7120  118.4880 C.2     1  UNL1       -0.0802
     54 C          12.2220   31.5870  118.5300 C.2     1  UNL1       -0.0568
     55 C          10.7500   31.3480  118.2480 C.3     1  UNL1        0.1025
     56 C          10.3820   29.9400  117.6880 C.3     1  UNL1        0.0879
     57 C          10.7820   29.7880  116.2090 C.3     1  UNL1       -0.0239
     58 C          10.7840   28.3150  115.7930 C.3     1  UNL1       -0.0505
     59 C          11.3960   28.1340  114.4040 C.3     1  UNL1       -0.0493
     60 C          11.5580   26.6630  114.0020 C.3     1  UNL1       -0.0114
     61 C          12.5140   25.8700  114.9120 C.3     1  UNL1        0.1280
     62 C          16.4670   26.5050  114.7520 C.3     1  UNL1       -0.0472
     63 C          19.6860   28.2520  116.2210 C.3     1  UNL1        0.0371
     64 C          17.7890   30.4830  118.6560 C.3     1  UNL1       -0.0576
     65 C          14.9770   32.4460  119.1870 C.3     1  UNL1       -0.0566
     66 C           8.9790   32.6570  117.3010 C.3     1  UNL1        0.0373
     67 C           8.5680   29.1880  119.0500 C.3     1  UNL1        0.0369
     68 C          12.6910   24.4440  114.4150 C.ar    1  UNL1       -0.0073
     69 C          13.3700   24.1680  113.2170 C.ar    1  UNL1       -0.0551
     70 C          13.5240   22.8530  112.7720 C.ar    1  UNL1       -0.0614
     71 C          13.0030   21.7990  113.5190 C.ar    1  UNL1       -0.0617
     72 C          12.3290   22.0570  114.7110 C.ar    1  UNL1       -0.0614
     73 C          12.1740   23.3710  115.1570 C.ar    1  UNL1       -0.0551
     74 O          13.8090   26.6390  117.1950 O.2     1  UNL1       -0.2503
     75 O          15.2210   29.2670  114.9000 O.3     1  UNL1       -0.3619
     76 O          18.3380   28.3330  116.6680 O.3     1  UNL1       -0.3718
     77 O          17.0780   31.3820  115.0510 O.3     1  UNL1       -0.3887
     78 O          15.4570   29.2090  117.2350 O.3     1  UNL1       -0.3415
     79 O          10.3780   32.4180  117.3580 O.3     1  UNL1       -0.3732
     80 O           8.9640   29.6830  117.7780 O.3     1  UNL1       -0.3769
     81 O          13.8070   26.5000  114.9070 O.3     1  UNL1       -0.4563
@<TRIPOS>BOND
     1    22    70    1
     2    21    69    1
     3    70    69   ar
     4    70    71   ar
     5    13    60    1
     6    23    71    1
     7    69    68   ar
     8    71    72   ar
     9    32    59    1
    10    15    62    1
    11    33    60    1
    12    60    59    1
    13    60    61    1
    14    12    59    1
    15    59    58    1
    16    68    61    1
    17    68    73   ar
    18    26    75    1
    19    72    73   ar
    20    72    24    1
    21    34    62    1
    22    62    40    1
    23    62    46    1
    24     3    48    1
    25    75    47    1
    26    81    61    1
    27    81    45    1
    28    61    14    1
    29    77     1    1
    30    77    49    1
    31    73    25    1
    32    16    63    1
    33    30    57    1
    34    58    11    1
    35    58    57    1
    36    58    31    1
    37    48    47    1
    38    48    49    1
    39    48    76    1
    40    46    47    1
    41    46    45    1
    42    46     2    1
    43    47    78    1
    44    10    57    1
    45    45    74    2
    46    49     4    1
    47    49    50    1
    48    57    56    1
    49    63    35    1
    50    63    76    1
    51    63    41    1
    52     6    51    1
    53    38    66    1
    54    19    66    1
    55    78    51    1
    56    66    79    1
    57    66    44    1
    58    79    55    1
    59    51    50    1
    60    51    52    1
    61    50     5    1
    62    50    64    1
    63    56    80    1
    64    56    55    1
    65    56     9    1
    66    80    67    1
    67    27    53    1
    68    55    54    1
    69    55     8    1
    70    43    65    1
    71    53    54    2
    72    53    52    1
    73    54    28    1
    74    36    64    1
    75    64    42    1
    76    64    17    1
    77    52    65    1
    78    52     7    1
    79    20    67    1
    80    67    29    1
    81    67    39    1
    82    65    18    1
    83    65    37    1
