@<TRIPOS>MOLECULE
132.03550
 81 83 0 0 0
SMALL
GASTEIGER

@<TRIPOS>ATOM
      1 H          18.3740   25.2980  116.0100 H       1  UNL1        0.2099
      2 H          12.8430   23.5380  117.0520 H       1  UNL1        0.0465
      3 H          15.3020   24.3200  114.8710 H       1  UNL1        0.0676
      4 H          17.5100   23.2870  115.6330 H       1  UNL1        0.0624
      5 H          18.2490   23.9600  117.9200 H       1  UNL1        0.0349
      6 H          16.5940   25.7080  118.3750 H       1  UNL1        0.0606
      7 H          16.0930   23.4770  120.3980 H       1  UNL1        0.0365
      8 H          14.2580   27.0260  122.5850 H       1  UNL1        0.0666
      9 H          14.8400   29.5000  122.8990 H       1  UNL1        0.0625
     10 H          13.9440   30.2310  120.8500 H       1  UNL1        0.0291
     11 H          15.4020   29.0620  119.2160 H       1  UNL1        0.0266
     12 H          13.7700   28.5330  117.5410 H       1  UNL1        0.0267
     13 H          11.3960   29.0170  119.3260 H       1  UNL1        0.0304
     14 H          10.3730   27.1680  117.9680 H       1  UNL1        0.0785
     15 H          12.9380   25.5600  114.7520 H       1  UNL1        0.0239
     16 H          14.8580   22.3160  113.8350 H       1  UNL1        0.0524
     17 H          17.4230   21.9870  119.0420 H       1  UNL1        0.0234
     18 H          18.5200   23.6150  120.1670 H       1  UNL1        0.0236
     19 H          16.0920   26.3320  125.5170 H       1  UNL1        0.0524
     20 H          18.1410   30.3680  122.1820 H       1  UNL1        0.0524
     21 H          12.6270   28.5830  115.3670 H       1  UNL1        0.0621
     22 H          11.9120   30.3260  113.7820 H       1  UNL1        0.0618
     23 H           9.7450   31.4930  114.0980 H       1  UNL1        0.0618
     24 H           8.2940   30.9060  116.0220 H       1  UNL1        0.0618
     25 H           8.9950   29.1680  117.6260 H       1  UNL1        0.0621
     26 H          15.8110   26.2380  116.3130 H       1  UNL1        0.2129
     27 H          14.6020   25.2150  120.9770 H       1  UNL1        0.0573
     28 H          17.1650   26.8160  121.5450 H       1  UNL1        0.0595
     29 H          16.8830   30.2910  123.4290 H       1  UNL1        0.0524
     30 H          13.1500   28.7240  121.2860 H       1  UNL1        0.0291
     31 H          14.6060   27.5380  119.5810 H       1  UNL1        0.0266
     32 H          13.2620   29.9890  118.3780 H       1  UNL1        0.0267
     33 H          12.1820   27.4670  119.5610 H       1  UNL1        0.0304
     34 H          11.4970   24.6370  115.1980 H       1  UNL1        0.0239
     35 H          16.3610   21.7050  114.5980 H       1  UNL1        0.0524
     36 H          17.4680   21.5940  117.3300 H       1  UNL1        0.0234
     37 H          18.0740   24.4390  121.6470 H       1  UNL1        0.0236
     38 H          14.5950   26.0060  124.6220 H       1  UNL1        0.0524
     39 H          17.7940   28.8170  122.9510 H       1  UNL1        0.0524
     40 H          12.9380   23.7940  114.6420 H       1  UNL1        0.0239
     41 H          14.8360   20.8260  114.7980 H       1  UNL1        0.0524
     42 H          15.9250   21.9680  118.1230 H       1  UNL1        0.0234
     43 H          18.4860   25.3810  120.1980 H       1  UNL1        0.0236
     44 H          16.1680   25.3680  124.0350 H       1  UNL1        0.0524
     45 C          12.2690   25.4880  117.5520 C.2     1  UNL1        0.3158
     46 C          13.0880   24.5470  116.6900 C.3     1  UNL1        0.1098
     47 C          14.6070   24.7970  116.8710 C.3     1  UNL1        0.2096
     48 C          15.4350   23.9040  115.8790 C.3     1  UNL1        0.1386
     49 C          16.9290   23.9880  116.2420 C.3     1  UNL1        0.0913
     50 C          17.1940   23.7210  117.7320 C.3     1  UNL1        0.0117
     51 C          16.3190   24.6670  118.5910 C.3     1  UNL1        0.0730
     52 C          16.4970   24.4630  120.1290 C.3     1  UNL1        0.0011
     53 C          15.6650   25.4550  120.9330 C.2     1  UNL1       -0.0802
     54 C          16.1160   26.5390  121.5920 C.2     1  UNL1       -0.0568
     55 C          15.2760   27.4220  122.4840 C.3     1  UNL1        0.1025
     56 C          15.1680   28.9150  122.0280 C.3     1  UNL1        0.0879
     57 C          14.1000   29.1480  120.9420 C.3     1  UNL1       -0.0239
     58 C          14.4570   28.6180  119.5520 C.3     1  UNL1       -0.0505
     59 C          13.3870   28.9060  118.4960 C.3     1  UNL1       -0.0493
     60 C          12.0280   28.2700  118.8310 C.3     1  UNL1       -0.0114
     61 C          11.2870   27.6710  117.6220 C.3     1  UNL1        0.1280
     62 C          12.5930   24.6420  115.2390 C.3     1  UNL1       -0.0472
     63 C          15.2810   21.8220  114.7150 C.3     1  UNL1        0.0371
     64 C          16.9840   22.2380  118.0720 C.3     1  UNL1       -0.0576
     65 C          17.9750   24.4800  120.5560 C.3     1  UNL1       -0.0566
     66 C          15.6650   26.2110  124.5180 C.3     1  UNL1        0.0373
     67 C          17.3420   29.7470  122.5990 C.3     1  UNL1        0.0369
     68 C          10.8630   28.7350  116.6190 C.ar    1  UNL1       -0.0073
     69 C          11.6720   29.0820  115.5240 C.ar    1  UNL1       -0.0551
     70 C          11.2720   30.0700  114.6220 C.ar    1  UNL1       -0.0614
     71 C          10.0560   30.7250  114.8010 C.ar    1  UNL1       -0.0617
     72 C           9.2420   30.3950  115.8820 C.ar    1  UNL1       -0.0614
     73 C           9.6440   29.4100  116.7880 C.ar    1  UNL1       -0.0551
     74 O          11.7670   25.1720  118.6260 O.2     1  UNL1       -0.2503
     75 O          14.8790   26.1770  116.6040 O.3     1  UNL1       -0.3619
     76 O          14.9670   22.5470  115.8970 O.3     1  UNL1       -0.3718
     77 O          17.4030   25.3050  115.9100 O.3     1  UNL1       -0.3887
     78 O          14.9350   24.4860  118.2400 O.3     1  UNL1       -0.3415
     79 O          15.8800   27.4180  123.7980 O.3     1  UNL1       -0.3732
     80 O          16.4010   29.4950  121.5640 O.3     1  UNL1       -0.3769
     81 O          12.1010   26.6950  116.9470 O.3     1  UNL1       -0.4563
@<TRIPOS>BOND
     1    22    70    1
     2    16    63    1
     3    23    71    1
     4    35    63    1
     5    70    71   ar
     6    70    69   ar
     7    40    62    1
     8    63    41    1
     9    63    76    1
    10    15    62    1
    11    71    72   ar
    12     3    48    1
    13    34    62    1
    14    62    46    1
    15    21    69    1
    16    69    68   ar
    17     4    49    1
    18    48    76    1
    19    48    49    1
    20    48    47    1
    21    72    24    1
    22    72    73   ar
    23    77     1    1
    24    77    49    1
    25    49    50    1
    26    26    75    1
    27    75    47    1
    28    68    73   ar
    29    68    61    1
    30    46    47    1
    31    46     2    1
    32    46    45    1
    33    73    25    1
    34    47    78    1
    35    81    45    1
    36    81    61    1
    37    36    64    1
    38    12    59    1
    39    45    74    2
    40    61    14    1
    41    61    60    1
    42    50     5    1
    43    50    64    1
    44    50    51    1
    45    64    42    1
    46    64    17    1
    47    78    51    1
    48     6    51    1
    49    32    59    1
    50    59    60    1
    51    59    58    1
    52    51    52    1
    53    60    13    1
    54    60    33    1
    55    11    58    1
    56    58    31    1
    57    58    57    1
    58    52     7    1
    59    52    65    1
    60    52    53    1
    61    18    65    1
    62    43    65    1
    63    65    37    1
    64    10    57    1
    65    53    27    1
    66    53    54    2
    67    57    30    1
    68    57    56    1
    69    28    54    1
    70    80    56    1
    71    80    67    1
    72    54    55    1
    73    56    55    1
    74    56     9    1
    75    20    67    1
    76    55     8    1
    77    55    79    1
    78    67    39    1
    79    67    29    1
    80    79    66    1
    81    44    66    1
    82    66    38    1
    83    66    19    1
