@<TRIPOS>MOLECULE
150.01270
 81 83 0 0 0
SMALL
GASTEIGER

@<TRIPOS>ATOM
      1 H          12.7230   29.4710  108.3070 H       1  UNL1        0.2099
      2 H          12.9170   27.4830  113.8660 H       1  UNL1        0.0465
      3 H          13.5790   27.0860  110.5960 H       1  UNL1        0.0676
      4 H          14.5260   29.2000  109.5510 H       1  UNL1        0.0624
      5 H          13.0330   31.2330  109.7900 H       1  UNL1        0.0349
      6 H          11.0850   30.2680  110.8570 H       1  UNL1        0.0606
      7 H          12.5060   32.1580  112.8030 H       1  UNL1        0.0365
      8 H           8.2100   32.7950  115.1650 H       1  UNL1        0.0666
      9 H           9.2050   29.9380  115.0450 H       1  UNL1        0.0625
     10 H           6.8740   30.8250  116.5120 H       1  UNL1        0.0291
     11 H           7.0890   28.6330  115.4500 H       1  UNL1        0.0266
     12 H           8.9060   27.6810  117.7010 H       1  UNL1        0.0267
     13 H           8.1160   26.7340  114.9130 H       1  UNL1        0.0304
     14 H          10.2740   25.6160  116.7380 H       1  UNL1        0.0785
     15 H          11.8320   25.3170  111.9550 H       1  UNL1        0.0239
     16 H          15.7400   26.5510  111.2380 H       1  UNL1        0.0524
     17 H          14.3410   32.2070  111.5330 H       1  UNL1        0.0234
     18 H          12.1060   33.1620  110.5720 H       1  UNL1        0.0236
     19 H           6.1080   30.1710  112.8920 H       1  UNL1        0.0524
     20 H          10.8180   32.4620  117.7850 H       1  UNL1        0.0524
     21 H           8.6260   25.0820  113.3450 H       1  UNL1        0.0621
     22 H           8.3850   22.8460  112.3570 H       1  UNL1        0.0618
     23 H           9.3400   20.8600  113.4970 H       1  UNL1        0.0618
     24 H          10.5540   21.1310  115.6430 H       1  UNL1        0.0618
     25 H          10.8140   23.3650  116.6510 H       1  UNL1        0.0621
     26 H          11.3630   28.0790  110.1470 H       1  UNL1        0.2129
     27 H          10.8860   30.8650  114.0260 H       1  UNL1        0.0573
     28 H           9.0350   32.9940  112.8280 H       1  UNL1        0.0595
     29 H          10.1090   33.2390  116.3660 H       1  UNL1        0.0524
     30 H           8.1300   30.4190  117.6750 H       1  UNL1        0.0291
     31 H           6.7460   28.4660  117.1590 H       1  UNL1        0.0266
     32 H           9.6670   28.3620  116.2850 H       1  UNL1        0.0267
     33 H           7.8630   25.9250  116.4380 H       1  UNL1        0.0304
     34 H          12.4710   25.0060  113.5690 H       1  UNL1        0.0239
     35 H          16.1920   28.1610  110.5920 H       1  UNL1        0.0524
     36 H          15.3660   30.9710  110.8240 H       1  UNL1        0.0234
     37 H          11.0520   33.8950  111.7720 H       1  UNL1        0.0236
     38 H           7.5760   30.8010  112.1410 H       1  UNL1        0.0524
     39 H           9.0520   32.5270  117.6290 H       1  UNL1        0.0524
     40 H          13.5440   25.6100  112.3230 H       1  UNL1        0.0239
     41 H          16.6490   27.6990  112.2390 H       1  UNL1        0.0524
     42 H          14.5630   30.6700  112.3770 H       1  UNL1        0.0234
     43 H          10.4010   32.6940  110.6410 H       1  UNL1        0.0236
     44 H           7.6840   29.5900  113.4550 H       1  UNL1        0.0524
     45 C          10.8360   27.0810  113.8510 C.2     1  UNL1        0.3158
     46 C          12.1860   27.1300  113.1250 C.3     1  UNL1        0.1098
     47 C          12.1990   28.1180  111.9230 C.3     1  UNL1        0.2096
     48 C          13.5460   28.0490  111.1230 C.3     1  UNL1        0.1386
     49 C          13.5570   29.1720  110.0590 C.3     1  UNL1        0.0913
     50 C          13.2300   30.5610  110.6360 C.3     1  UNL1        0.0117
     51 C          11.9440   30.4970  111.5020 C.3     1  UNL1        0.0730
     52 C          11.6180   31.8420  112.2410 C.3     1  UNL1        0.0011
     53 C          10.5710   31.6280  113.3140 C.2     1  UNL1       -0.0802
     54 C           9.3800   32.2210  113.5070 C.2     1  UNL1       -0.0568
     55 C           8.3950   31.8640  114.6160 C.3     1  UNL1        0.1025
     56 C           8.8840   30.7920  115.6490 C.3     1  UNL1        0.0879
     57 C           7.8120   30.2720  116.6360 C.3     1  UNL1       -0.0239
     58 C           7.5210   28.7740  116.4460 C.3     1  UNL1       -0.0505
     59 C           8.7540   27.8730  116.6320 C.3     1  UNL1       -0.0493
     60 C           8.5800   26.5480  115.8860 C.3     1  UNL1       -0.0114
     61 C           9.9030   25.7750  115.7170 C.3     1  UNL1        0.1280
     62 C          12.5270   25.6900  112.7150 C.3     1  UNL1       -0.0472
     63 C          15.8690   27.6100  111.4780 C.3     1  UNL1        0.0371
     64 C          14.4420   31.1260  111.3900 C.3     1  UNL1       -0.0576
     65 C          11.2730   32.9570  111.2500 C.3     1  UNL1       -0.0566
     66 C           7.1430   30.4640  113.0870 C.3     1  UNL1        0.0373
     67 C           9.9880   32.4150  117.0750 C.3     1  UNL1        0.0369
     68 C           9.7220   24.3990  115.0900 C.ar    1  UNL1       -0.0073
     69 C           9.0460   24.2270  113.8710 C.ar    1  UNL1       -0.0551
     70 C           8.9100   22.9600  113.3020 C.ar    1  UNL1       -0.0614
     71 C           9.4480   21.8460  113.9400 C.ar    1  UNL1       -0.0617
     72 C          10.1290   21.9990  115.1460 C.ar    1  UNL1       -0.0614
     73 C          10.2700   23.2670  115.7140 C.ar    1  UNL1       -0.0551
     74 O           9.7560   27.4470  113.4160 O.2     1  UNL1       -0.2503
     75 O          11.1180   27.7840  111.0470 O.3     1  UNL1       -0.3619
     76 O          14.6690   28.1520  112.0110 O.3     1  UNL1       -0.3718
     77 O          12.5830   28.8530  109.0480 O.3     1  UNL1       -0.3887
     78 O          12.0580   29.4390  112.4700 O.3     1  UNL1       -0.3415
     79 O           7.1220   31.5280  114.0340 O.3     1  UNL1       -0.3732
     80 O          10.0600   31.1690  116.3990 O.3     1  UNL1       -0.3769
     81 O          11.0050   26.4490  115.0540 O.3     1  UNL1       -0.4563
@<TRIPOS>BOND
     1     1    77    1
     2    77    49    1
     3     4    49    1
     4     5    50    1
     5    49    50    1
     6    49    48    1
     7    26    75    1
     8    18    65    1
     9    35    63    1
    10     3    48    1
    11    50    64    1
    12    50    51    1
    13    43    65    1
    14    36    64    1
    15     6    51    1
    16    75    47    1
    17    48    47    1
    18    48    76    1
    19    16    63    1
    20    65    37    1
    21    65    52    1
    22    64    17    1
    23    64    42    1
    24    63    76    1
    25    63    41    1
    26    51    52    1
    27    51    78    1
    28    47    78    1
    29    47    46    1
    30    15    62    1
    31    38    66    1
    32    52     7    1
    33    52    53    1
    34    40    62    1
    35    22    70    1
    36    62    46    1
    37    62    34    1
    38    28    54    1
    39    19    66    1
    40    66    44    1
    41    66    79    1
    42    46    45    1
    43    46     2    1
    44    70    69   ar
    45    70    71   ar
    46    53    54    2
    47    53    27    1
    48    21    69    1
    49    74    45    2
    50    23    71    1
    51    54    55    1
    52    45    81    1
    53    69    68   ar
    54    71    72   ar
    55    79    55    1
    56    55     8    1
    57    55    56    1
    58    13    60    1
    59     9    56    1
    60    81    61    1
    61    68    73   ar
    62    68    61    1
    63    72    24    1
    64    72    73   ar
    65    11    58    1
    66    56    80    1
    67    56    57    1
    68    73    25    1
    69    61    60    1
    70    61    14    1
    71    60    33    1
    72    60    59    1
    73    32    59    1
    74    29    67    1
    75    80    67    1
    76    58    59    1
    77    58    57    1
    78    58    31    1
    79    10    57    1
    80    59    12    1
    81    57    30    1
    82    67    39    1
    83    67    20    1
