@<TRIPOS>MOLECULE
129.08761
 81 83 0 0 0
SMALL
GASTEIGER

@<TRIPOS>ATOM
      1 H          16.1420   24.0470  112.4580 H       1  UNL1        0.2099
      2 H          10.9900   26.6110  113.7280 H       1  UNL1        0.0465
      3 H          14.0780   26.7680  112.4340 H       1  UNL1        0.0676
      4 H          14.5630   24.6830  111.0390 H       1  UNL1        0.0624
      5 H          14.3800   22.5250  112.2850 H       1  UNL1        0.0349
      6 H          14.0880   23.3850  114.5590 H       1  UNL1        0.0606
      7 H          11.4930   21.9560  113.8270 H       1  UNL1        0.0365
      8 H          11.1500   21.8290  118.3370 H       1  UNL1        0.0666
      9 H          12.6730   21.0650  120.2750 H       1  UNL1        0.0625
     10 H          13.7170   23.2010  118.3630 H       1  UNL1        0.0291
     11 H          11.3730   23.4750  119.5980 H       1  UNL1        0.0266
     12 H          13.4790   25.5520  120.3230 H       1  UNL1        0.0267
     13 H          12.0380   24.9110  117.7400 H       1  UNL1        0.0304
     14 H          11.1310   27.1680  118.2630 H       1  UNL1        0.0785
     15 H          13.3270   28.4530  114.4700 H       1  UNL1        0.0239
     16 H          13.0750   27.6640  110.5620 H       1  UNL1        0.0524
     17 H          12.1520   21.9890  111.5160 H       1  UNL1        0.0234
     18 H          13.3430   20.6230  112.8840 H       1  UNL1        0.0236
     19 H           9.7540   18.6250  118.1390 H       1  UNL1        0.0524
     20 H          15.2030   18.8450  119.3470 H       1  UNL1        0.0524
     21 H          14.8470   27.6870  117.6610 H       1  UNL1        0.0621
     22 H          16.1660   29.3890  118.8710 H       1  UNL1        0.0618
     23 H          15.0970   30.7830  120.6240 H       1  UNL1        0.0618
     24 H          12.6970   30.4670  121.1640 H       1  UNL1        0.0618
     25 H          11.3660   28.7680  119.9710 H       1  UNL1        0.0621
     26 H          14.8660   25.5210  114.3870 H       1  UNL1        0.2129
     27 H          11.3540   22.7840  116.1010 H       1  UNL1        0.0573
     28 H          13.2020   20.3680  116.5590 H       1  UNL1        0.0595
     29 H          13.7110   19.0560  120.2810 H       1  UNL1        0.0524
     30 H          14.3690   22.9630  119.9600 H       1  UNL1        0.0291
     31 H          12.3110   23.5120  121.0750 H       1  UNL1        0.0266
     32 H          11.7270   25.7510  120.2800 H       1  UNL1        0.0267
     33 H          13.6750   25.4580  117.9620 H       1  UNL1        0.0304
     34 H          11.6310   28.9530  114.4520 H       1  UNL1        0.0239
     35 H          13.3670   26.0720  109.7900 H       1  UNL1        0.0524
     36 H          12.7600   23.2320  110.4340 H       1  UNL1        0.0234
     37 H          12.7220   19.8200  114.3060 H       1  UNL1        0.0236
     38 H           9.4100   20.3560  118.3180 H       1  UNL1        0.0524
     39 H          13.6540   18.7450  118.5100 H       1  UNL1        0.0524
     40 H          12.4070   28.4310  112.9580 H       1  UNL1        0.0239
     41 H          11.7440   26.7810  109.7890 H       1  UNL1        0.0524
     42 H          11.5840   23.6430  111.6980 H       1  UNL1        0.0234
     43 H          14.2450   20.7310  114.3990 H       1  UNL1        0.0236
     44 H          10.1260   19.7230  116.7980 H       1  UNL1        0.0524
     45 C          11.4760   26.6660  115.7620 C.2     1  UNL1        0.3158
     46 C          11.9020   26.7950  114.3130 C.3     1  UNL1        0.1098
     47 C          12.9620   25.7160  113.9700 C.3     1  UNL1        0.2096
     48 C          13.4460   25.8700  112.4860 C.3     1  UNL1        0.1386
     49 C          14.3080   24.6520  112.1040 C.3     1  UNL1        0.0913
     50 C          13.6290   23.3120  112.4340 C.3     1  UNL1        0.0117
     51 C          13.1970   23.2970  113.9230 C.3     1  UNL1        0.0730
     52 C          12.4550   21.9910  114.3560 C.3     1  UNL1        0.0011
     53 C          12.0770   22.0100  115.8360 C.2     1  UNL1       -0.0802
     54 C          12.4810   21.1480  116.7890 C.2     1  UNL1       -0.0568
     55 C          11.9600   21.1040  118.2070 C.3     1  UNL1        0.1025
     56 C          13.0570   21.3700  119.2920 C.3     1  UNL1        0.0879
     57 C          13.4510   22.8570  119.3680 C.3     1  UNL1       -0.0239
     58 C          12.3580   23.7270  120.0000 C.3     1  UNL1       -0.0505
     59 C          12.5680   25.2310  119.8050 C.3     1  UNL1       -0.0493
     60 C          12.6500   25.6090  118.3250 C.3     1  UNL1       -0.0114
     61 C          12.1900   27.0410  118.0050 C.3     1  UNL1        0.1280
     62 C          12.3460   28.2360  114.0320 C.3     1  UNL1       -0.0472
     63 C          12.6620   26.6680  110.3730 C.3     1  UNL1        0.0371
     64 C          12.4650   23.0360  111.4700 C.3     1  UNL1       -0.0576
     65 C          13.2380   20.7250  113.9670 C.3     1  UNL1       -0.0566
     66 C          10.1060   19.6290  117.8880 C.3     1  UNL1        0.0373
     67 C          14.1890   19.2520  119.3160 C.3     1  UNL1        0.0369
     68 C          13.0090   28.0940  118.7290 C.ar    1  UNL1       -0.0073
     69 C          14.3680   28.2870  118.4320 C.ar    1  UNL1       -0.0551
     70 C          15.1160   29.2500  119.1120 C.ar    1  UNL1       -0.0614
     71 C          14.5150   30.0330  120.0950 C.ar    1  UNL1       -0.0617
     72 C          13.1670   29.8550  120.3990 C.ar    1  UNL1       -0.0614
     73 C          12.4170   28.8920  119.7200 C.ar    1  UNL1       -0.0551
     74 O          10.4600   26.0880  116.1300 O.2     1  UNL1       -0.2503
     75 O          14.0800   25.8690  114.8540 O.3     1  UNL1       -0.3619
     76 O          12.3310   26.0230  111.5960 O.3     1  UNL1       -0.3718
     77 O          15.5520   24.7340  112.8230 O.3     1  UNL1       -0.3887
     78 O          12.3470   24.4300  114.1770 O.3     1  UNL1       -0.3415
     79 O          11.4060   19.7930  118.4430 O.3     1  UNL1       -0.3732
     80 O          14.2860   20.6470  119.0610 O.3     1  UNL1       -0.3769
     81 O          12.3620   27.2760  116.5950 O.3     1  UNL1       -0.4563
@<TRIPOS>BOND
     1    41    63    1
     2    35    63    1
     3    63    16    1
     4    63    76    1
     5    36    64    1
     6     4    49    1
     7    64    17    1
     8    64    42    1
     9    64    50    1
    10    76    48    1
    11    49    50    1
    12    49    48    1
    13    49    77    1
    14     5    50    1
    15    50    51    1
    16     3    48    1
    17     1    77    1
    18    48    47    1
    19    18    65    1
    20    40    62    1
    21     2    46    1
    22     7    52    1
    23    51    78    1
    24    51    52    1
    25    51     6    1
    26    65    37    1
    27    65    52    1
    28    65    43    1
    29    47    78    1
    30    47    46    1
    31    47    75    1
    32    62    46    1
    33    62    34    1
    34    62    15    1
    35    46    45    1
    36    52    53    1
    37    26    75    1
    38    45    74    2
    39    45    81    1
    40    53    27    1
    41    53    54    2
    42    28    54    1
    43    81    61    1
    44    54    55    1
    45    44    66    1
    46    21    69    1
    47    13    60    1
    48    66    19    1
    49    66    38    1
    50    66    79    1
    51    33    60    1
    52    61    14    1
    53    61    60    1
    54    61    68    1
    55    55     8    1
    56    55    79    1
    57    55    56    1
    58    60    59    1
    59    10    57    1
    60    69    68   ar
    61    69    70   ar
    62    39    67    1
    63    68    73   ar
    64    22    70    1
    65    80    56    1
    66    80    67    1
    67    70    71   ar
    68    56    57    1
    69    56     9    1
    70    67    20    1
    71    67    29    1
    72    57    30    1
    73    57    58    1
    74    11    58    1
    75    73    25    1
    76    73    72   ar
    77    59    58    1
    78    59    32    1
    79    59    12    1
    80    58    31    1
    81    71    72   ar
    82    71    23    1
    83    72    24    1
