@<TRIPOS>MOLECULE
136.40807
 81 83 0 0 0
SMALL
GASTEIGER

@<TRIPOS>ATOM
      1 H          18.1670   32.5830  116.2970 H       1  UNL1        0.2099
      2 H          14.2570   28.7150  114.3350 H       1  UNL1        0.0465
      3 H          15.3830   31.7480  114.5360 H       1  UNL1        0.0676
      4 H          17.9280   31.7420  114.2700 H       1  UNL1        0.0624
      5 H          19.1490   30.4630  116.0280 H       1  UNL1        0.0349
      6 H          17.2640   30.0010  117.5210 H       1  UNL1        0.0606
      7 H          18.2510   27.2820  116.5440 H       1  UNL1        0.0365
      8 H          17.4400   24.8570  120.5220 H       1  UNL1        0.0666
      9 H          15.0660   25.6810  118.8690 H       1  UNL1        0.0625
     10 H          14.4170   26.1880  121.3760 H       1  UNL1        0.0291
     11 H          12.9200   24.2680  119.5510 H       1  UNL1        0.0266
     12 H          12.0220   26.8930  120.8310 H       1  UNL1        0.0267
     13 H          13.2870   26.4210  118.1060 H       1  UNL1        0.0304
     14 H          11.2820   27.7370  117.6210 H       1  UNL1        0.0785
     15 H          12.7120   31.0710  115.5580 H       1  UNL1        0.0239
     16 H          15.1660   31.6400  112.2370 H       1  UNL1        0.0524
     17 H          19.4340   28.4370  114.7380 H       1  UNL1        0.0234
     18 H          20.2760   28.6860  116.8770 H       1  UNL1        0.0236
     19 H          17.7140   27.6240  122.6490 H       1  UNL1        0.0524
     20 H          15.5590   22.4260  117.8000 H       1  UNL1        0.0524
     21 H          13.3780   30.1440  119.6640 H       1  UNL1        0.0621
     22 H          12.3930   31.7190  121.2920 H       1  UNL1        0.0618
     23 H           9.9540   31.6750  121.7550 H       1  UNL1        0.0618
     24 H           8.5010   30.0430  120.5810 H       1  UNL1        0.0618
     25 H           9.4690   28.4580  118.9580 H       1  UNL1        0.0621
     26 H          15.6720   31.4850  116.9260 H       1  UNL1        0.2129
     27 H          16.9850   28.2600  119.1510 H       1  UNL1        0.0573
     28 H          18.0140   25.5100  118.2650 H       1  UNL1        0.0595
     29 H          14.5270   23.8520  117.5720 H       1  UNL1        0.0524
     30 H          14.6050   24.4480  121.6120 H       1  UNL1        0.0291
     31 H          12.3620   24.5480  121.1890 H       1  UNL1        0.0266
     32 H          11.2120   25.9850  119.5590 H       1  UNL1        0.0267
     33 H          13.8300   27.5590  119.3240 H       1  UNL1        0.0304
     34 H          12.0190   29.8720  114.4650 H       1  UNL1        0.0239
     35 H          16.9580   31.6290  112.2670 H       1  UNL1        0.0524
     36 H          19.0470   29.7140  113.5920 H       1  UNL1        0.0234
     37 H          20.1230   27.5970  118.2430 H       1  UNL1        0.0236
     38 H          17.9630   25.8710  122.5360 H       1  UNL1        0.0524
     39 H          16.3120   23.9960  117.4670 H       1  UNL1        0.0524
     40 H          13.3000   30.9370  113.8910 H       1  UNL1        0.0239
     41 H          16.0700   30.3930  111.3580 H       1  UNL1        0.0524
     42 H          17.8150   28.5260  114.0590 H       1  UNL1        0.0234
     43 H          19.6450   29.2930  118.4170 H       1  UNL1        0.0236
     44 H          18.7640   26.9770  121.3720 H       1  UNL1        0.0524
     45 C          13.3120   28.3700  116.1490 C.2     1  UNL1        0.3158
     46 C          13.9970   29.3350  115.2050 C.3     1  UNL1        0.1098
     47 C          15.3070   29.9530  115.7610 C.3     1  UNL1        0.2096
     48 C          15.9840   30.8340  114.6450 C.3     1  UNL1        0.1386
     49 C          17.4000   31.2410  115.0880 C.3     1  UNL1        0.0913
     50 C          18.2340   30.0500  115.5860 C.3     1  UNL1        0.0117
     51 C          17.4500   29.3040  116.6920 C.3     1  UNL1        0.0730
     52 C          18.2120   28.0810  117.2970 C.3     1  UNL1        0.0011
     53 C          17.5050   27.5360  118.5230 C.2     1  UNL1       -0.0802
     54 C          17.5050   26.2400  118.8890 C.2     1  UNL1       -0.0568
     55 C          16.8260   25.6770  120.1270 C.3     1  UNL1        0.1025
     56 C          15.4250   25.1230  119.7350 C.3     1  UNL1        0.0879
     57 C          14.3790   25.2200  120.8650 C.3     1  UNL1       -0.0239
     58 C          12.9390   24.9950  120.3700 C.3     1  UNL1       -0.0505
     59 C          12.1980   26.2760  119.9420 C.3     1  UNL1       -0.0493
     60 C          12.9340   27.1030  118.8860 C.3     1  UNL1       -0.0114
     61 C          12.0940   28.1940  118.2030 C.3     1  UNL1        0.1280
     62 C          12.9540   30.3650  114.7560 C.3     1  UNL1       -0.0472
     63 C          16.0590   31.0080  112.2610 C.3     1  UNL1        0.0371
     64 C          18.6470   29.1310  114.4280 C.3     1  UNL1       -0.0576
     65 C          19.6410   28.4380  117.7310 C.3     1  UNL1       -0.0566
     66 C          17.8560   26.7920  121.9550 C.3     1  UNL1        0.0373
     67 C          15.4820   23.5030  117.9770 C.3     1  UNL1        0.0369
     68 C          11.4980   29.1800  119.1920 C.ar    1  UNL1       -0.0073
     69 C          12.3080   30.1100  119.8650 C.ar    1  UNL1       -0.0551
     70 C          11.7540   31.0030  120.7820 C.ar    1  UNL1       -0.0614
     71 C          10.3850   30.9790  121.0400 C.ar    1  UNL1       -0.0617
     72 C           9.5690   30.0620  120.3800 C.ar    1  UNL1       -0.0614
     73 C          10.1210   29.1670  119.4610 C.ar    1  UNL1       -0.0551
     74 O          13.0200   27.2220  115.8270 O.2     1  UNL1       -0.2503
     75 O          14.9960   30.7790  116.8890 O.3     1  UNL1       -0.3619
     76 O          16.0250   30.1410  113.3870 O.3     1  UNL1       -0.3718
     77 O          17.2800   32.2050  116.1500 O.3     1  UNL1       -0.3887
     78 O          16.1770   28.8770  116.1690 O.3     1  UNL1       -0.3415
     79 O          16.7140   26.7150  121.1120 O.3     1  UNL1       -0.3732
     80 O          15.5420   23.7260  119.3800 O.3     1  UNL1       -0.3769
     81 O          12.9220   28.9640  117.3040 O.3     1  UNL1       -0.4563
@<TRIPOS>BOND
     1    41    63    1
     2    16    63    1
     3    63    35    1
     4    63    76    1
     5    76    48    1
     6    36    64    1
     7    40    62    1
     8    42    64    1
     9     4    49    1
    10     2    46    1
    11    64    17    1
    12    64    50    1
    13    34    62    1
    14     3    48    1
    15    48    49    1
    16    48    47    1
    17    62    46    1
    18    62    15    1
    19    49    50    1
    20    49    77    1
    21    46    47    1
    22    46    45    1
    23    50     5    1
    24    50    51    1
    25    47    78    1
    26    47    75    1
    27    74    45    2
    28    45    81    1
    29    77     1    1
    30    78    51    1
    31     7    52    1
    32    51    52    1
    33    51     6    1
    34    18    65    1
    35    75    26    1
    36    52    65    1
    37    52    53    1
    38    81    61    1
    39    39    67    1
    40    29    67    1
    41    14    61    1
    42    65    37    1
    43    65    43    1
    44    20    67    1
    45    67    80    1
    46    13    60    1
    47    61    60    1
    48    61    68    1
    49    28    54    1
    50    53    54    2
    51    53    27    1
    52     9    56    1
    53    60    33    1
    54    60    59    1
    55    54    55    1
    56    25    73    1
    57    68    73   ar
    58    68    69   ar
    59    80    56    1
    60    73    72   ar
    61    11    58    1
    62    32    59    1
    63    21    69    1
    64    56    55    1
    65    56    57    1
    66    69    70   ar
    67    59    58    1
    68    59    12    1
    69    55     8    1
    70    55    79    1
    71    58    57    1
    72    58    31    1
    73    72    24    1
    74    72    71   ar
    75    70    71   ar
    76    70    22    1
    77    57    10    1
    78    57    30    1
    79    71    23    1
    80    79    66    1
    81    44    66    1
    82    66    38    1
    83    66    19    1
