@<TRIPOS>MOLECULE
133.09369
 81 83 0 0 0
SMALL
GASTEIGER

@<TRIPOS>ATOM
      1 H          18.5950   30.6520  115.8640 H       1  UNL1        0.2099
      2 H          14.5400   26.5360  114.7440 H       1  UNL1        0.0465
      3 H          16.1280   29.3340  113.9090 H       1  UNL1        0.0676
      4 H          18.6450   29.0840  114.3020 H       1  UNL1        0.0624
      5 H          19.2780   28.5740  116.6810 H       1  UNL1        0.0349
      6 H          17.0970   28.8000  117.7390 H       1  UNL1        0.0606
      7 H          17.9050   25.8620  117.9800 H       1  UNL1        0.0365
      8 H          14.2780   24.7100  120.4170 H       1  UNL1        0.0666
      9 H          13.7280   26.1660  122.4080 H       1  UNL1        0.0625
     10 H          12.5840   26.3920  120.2670 H       1  UNL1        0.0291
     11 H          13.3160   29.1900  121.2780 H       1  UNL1        0.0266
     12 H          11.1030   29.8460  120.6330 H       1  UNL1        0.0267
     13 H          11.4920   30.1880  118.4320 H       1  UNL1        0.0304
     14 H          11.8030   27.1630  118.2240 H       1  UNL1        0.0785
     15 H          13.3320   29.3260  114.3540 H       1  UNL1        0.0239
     16 H          16.4050   28.3060  111.8580 H       1  UNL1        0.0524
     17 H          19.5800   26.2090  116.3410 H       1  UNL1        0.0234
     18 H          19.8870   27.2610  118.4740 H       1  UNL1        0.0236
     19 H          15.9760   22.6180  122.6070 H       1  UNL1        0.0524
     20 H          16.4130   28.0900  123.5860 H       1  UNL1        0.0524
     21 H          10.5540   30.0320  116.0730 H       1  UNL1        0.0621
     22 H           8.2390   30.1400  115.2190 H       1  UNL1        0.0618
     23 H           6.5970   28.3850  115.8370 H       1  UNL1        0.0618
     24 H           7.2830   26.5140  117.3140 H       1  UNL1        0.0618
     25 H           9.5900   26.3900  118.1780 H       1  UNL1        0.0621
     26 H          15.9370   30.0550  116.2400 H       1  UNL1        0.2129
     27 H          16.2690   27.6770  119.8610 H       1  UNL1        0.0573
     28 H          16.5360   24.6600  119.4320 H       1  UNL1        0.0595
     29 H          15.4370   26.6420  123.8930 H       1  UNL1        0.0524
     30 H          13.8570   27.4450  119.6420 H       1  UNL1        0.0291
     31 H          12.1430   28.1440  122.0690 H       1  UNL1        0.0266
     32 H          10.6480   28.2210  120.1560 H       1  UNL1        0.0267
     33 H          13.0420   29.4730  118.7640 H       1  UNL1        0.0304
     34 H          12.5620   27.8190  113.8460 H       1  UNL1        0.0239
     35 H          18.1210   28.1480  112.3500 H       1  UNL1        0.0524
     36 H          19.6100   26.9430  114.7430 H       1  UNL1        0.0234
     37 H          19.2350   26.6430  119.9860 H       1  UNL1        0.0236
     38 H          14.4220   22.8630  121.7870 H       1  UNL1        0.0524
     39 H          16.8390   26.5880  122.7650 H       1  UNL1        0.0524
     40 H          14.0990   28.3030  113.1300 H       1  UNL1        0.0239
     41 H          17.2170   26.7300  111.7930 H       1  UNL1        0.0524
     42 H          18.1660   26.0750  115.2990 H       1  UNL1        0.0234
     43 H          18.9250   28.3220  119.5150 H       1  UNL1        0.0236
     44 H          15.9470   22.8050  120.8430 H       1  UNL1        0.0524
     45 C          13.3360   27.2120  116.3120 C.2     1  UNL1        0.3158
     46 C          14.2730   27.5180  115.1590 C.3     1  UNL1        0.1098
     47 C          15.5510   28.2190  115.6790 C.3     1  UNL1        0.2096
     48 C          16.5500   28.5150  114.5080 C.3     1  UNL1        0.1386
     49 C          17.8970   28.9870  115.0950 C.3     1  UNL1        0.0913
     50 C          18.4350   28.0590  116.2020 C.3     1  UNL1        0.0117
     51 C          17.3370   27.8370  117.2700 C.3     1  UNL1        0.0730
     52 C          17.7390   26.8570  118.4120 C.3     1  UNL1        0.0011
     53 C          16.6380   26.7400  119.4510 C.2     1  UNL1       -0.0802
     54 C          16.1350   25.5690  119.8770 C.2     1  UNL1       -0.0568
     55 C          15.0520   25.3170  120.9060 C.3     1  UNL1        0.1025
     56 C          14.3120   26.5370  121.5540 C.3     1  UNL1        0.0879
     57 C          13.3190   27.1550  120.5500 C.3     1  UNL1       -0.0239
     58 C          12.5910   28.3870  121.0980 C.3     1  UNL1       -0.0505
     59 C          11.4870   28.9250  120.1770 C.3     1  UNL1       -0.0493
     60 C          11.9670   29.2530  118.7560 C.3     1  UNL1       -0.0114
     61 C          11.6620   28.1340  117.7410 C.3     1  UNL1        0.1280
     62 C          13.5280   28.2880  114.0630 C.3     1  UNL1       -0.0472
     63 C          17.1410   27.6660  112.3530 C.3     1  UNL1        0.0371
     64 C          18.9690   26.7480  115.6100 C.3     1  UNL1       -0.0576
     65 C          19.0160   27.2990  119.1340 C.3     1  UNL1       -0.0566
     66 C          15.4830   23.1320  121.7780 C.3     1  UNL1        0.0373
     67 C          16.0000   27.1860  123.1290 C.3     1  UNL1        0.0369
     68 C          10.2440   28.2090  117.2000 C.ar    1  UNL1       -0.0073
     69 C           9.8420   29.2590  116.3570 C.ar    1  UNL1       -0.0551
     70 C           8.5350   29.3220  115.8700 C.ar    1  UNL1       -0.0614
     71 C           7.6140   28.3370  116.2170 C.ar    1  UNL1       -0.0617
     72 C           7.9990   27.2860  117.0470 C.ar    1  UNL1       -0.0614
     73 C           9.3060   27.2210  117.5350 C.ar    1  UNL1       -0.0551
     74 O          13.2660   26.1140  116.8560 O.2     1  UNL1       -0.2503
     75 O          15.1720   29.4480  116.3100 O.3     1  UNL1       -0.3619
     76 O          16.7240   27.3570  113.6760 O.3     1  UNL1       -0.3718
     77 O          17.7110   30.3040  115.6450 O.3     1  UNL1       -0.3887
     78 O          16.1540   27.3340  116.6350 O.3     1  UNL1       -0.3415
     79 O          15.6400   24.5320  121.9650 O.3     1  UNL1       -0.3732
     80 O          15.1620   27.5850  122.0540 O.3     1  UNL1       -0.3769
     81 O          12.5680   28.2890  116.6340 O.3     1  UNL1       -0.4563
@<TRIPOS>BOND
     1    41    63    1
     2    16    63    1
     3    35    63    1
     4    63    76    1
     5    40    62    1
     6    76    48    1
     7    34    62    1
     8     3    48    1
     9    62    15    1
    10    62    46    1
    11     4    49    1
    12    48    49    1
    13    48    47    1
    14    36    64    1
    15     2    46    1
    16    49    77    1
    17    49    50    1
    18    46    47    1
    19    46    45    1
    20    22    70    1
    21    42    64    1
    22    64    50    1
    23    64    17    1
    24    77     1    1
    25    47    75    1
    26    47    78    1
    27    23    71    1
    28    70    71   ar
    29    70    69   ar
    30    21    69    1
    31    50     5    1
    32    50    51    1
    33    71    72   ar
    34    26    75    1
    35    45    81    1
    36    45    74    2
    37    69    68   ar
    38    81    61    1
    39    78    51    1
    40    72    24    1
    41    72    73   ar
    42    68    73   ar
    43    68    61    1
    44    51     6    1
    45    51    52    1
    46    73    25    1
    47    61    14    1
    48    61    60    1
    49     7    52    1
    50    52    65    1
    51    52    53    1
    52    13    60    1
    53    18    65    1
    54    60    33    1
    55    60    59    1
    56    65    43    1
    57    65    37    1
    58    28    54    1
    59    53    27    1
    60    53    54    2
    61    30    57    1
    62    54    55    1
    63    32    59    1
    64    59    12    1
    65    59    58    1
    66    10    57    1
    67     8    55    1
    68    57    58    1
    69    57    56    1
    70    44    66    1
    71    55    56    1
    72    55    79    1
    73    58    11    1
    74    58    31    1
    75    56    80    1
    76    56     9    1
    77    66    38    1
    78    66    79    1
    79    66    19    1
    80    80    67    1
    81    39    67    1
    82    67    20    1
    83    67    29    1
