@<TRIPOS>MOLECULE
135.63235
 81 83 0 0 0
SMALL
GASTEIGER

@<TRIPOS>ATOM
      1 H          17.2460   33.7010  116.5080 H       1  UNL1        0.2099
      2 H          14.2900   29.0600  114.5990 H       1  UNL1        0.0465
      3 H          15.0440   32.1610  114.4260 H       1  UNL1        0.0676
      4 H          17.5700   32.4720  114.7020 H       1  UNL1        0.0624
      5 H          18.4610   31.7370  116.9230 H       1  UNL1        0.0349
      6 H          16.3380   31.2630  118.0380 H       1  UNL1        0.0606
      7 H          17.8360   28.6090  117.8510 H       1  UNL1        0.0365
      8 H          16.3230   26.9740  122.0680 H       1  UNL1        0.0666
      9 H          14.7730   26.2360  119.5630 H       1  UNL1        0.0625
     10 H          13.4070   26.4720  122.1040 H       1  UNL1        0.0291
     11 H          11.7450   24.8720  121.0240 H       1  UNL1        0.0266
     12 H          11.4510   27.3200  120.8230 H       1  UNL1        0.0267
     13 H          13.0670   26.9190  118.2640 H       1  UNL1        0.0304
     14 H          10.9970   28.1440  117.6120 H       1  UNL1        0.0785
     15 H          12.1980   31.2420  115.1640 H       1  UNL1        0.0239
     16 H          15.3290   31.5620  112.2070 H       1  UNL1        0.0524
     17 H          19.2680   29.5870  116.1770 H       1  UNL1        0.0234
     18 H          19.4950   30.3750  118.4090 H       1  UNL1        0.0236
     19 H          14.5070   29.8420  122.9170 H       1  UNL1        0.0524
     20 H          15.5180   24.2410  118.7650 H       1  UNL1        0.0524
     21 H          12.9110   30.5420  119.8480 H       1  UNL1        0.0621
     22 H          11.7840   32.1210  121.3770 H       1  UNL1        0.0618
     23 H           9.3090   32.1220  121.5700 H       1  UNL1        0.0618
     24 H           7.9620   30.5320  120.2230 H       1  UNL1        0.0618
     25 H           9.0720   28.9460  118.6950 H       1  UNL1        0.0621
     26 H          14.8070   32.3840  116.8290 H       1  UNL1        0.2129
     27 H          15.6880   29.6490  119.7110 H       1  UNL1        0.0573
     28 H          17.5030   27.1820  119.9000 H       1  UNL1        0.0595
     29 H          16.3720   23.1260  119.8480 H       1  UNL1        0.0524
     30 H          13.8480   24.7870  121.9670 H       1  UNL1        0.0291
     31 H          12.7680   24.8330  119.6010 H       1  UNL1        0.0266
     32 H          10.8410   26.3990  119.4530 H       1  UNL1        0.0267
     33 H          13.3890   28.0800  119.5250 H       1  UNL1        0.0304
     34 H          11.9640   29.8540  114.1040 H       1  UNL1        0.0239
     35 H          17.0490   31.8880  112.5950 H       1  UNL1        0.0524
     36 H          19.0380   30.5650  114.7330 H       1  UNL1        0.0234
     37 H          19.1250   29.4730  119.8680 H       1  UNL1        0.0236
     38 H          15.3210   28.4190  123.5960 H       1  UNL1        0.0524
     39 H          14.6390   23.3990  120.0850 H       1  UNL1        0.0524
     40 H          13.1600   31.0780  113.6820 H       1  UNL1        0.0239
     41 H          16.5790   30.3650  111.8180 H       1  UNL1        0.0524
     42 H          17.8630   29.3040  115.1550 H       1  UNL1        0.0234
     43 H          18.4010   31.0690  119.6180 H       1  UNL1        0.0236
     44 H          16.2080   29.5350  122.5070 H       1  UNL1        0.0524
     45 C          13.0510   28.8050  116.2350 C.2     1  UNL1        0.3158
     46 C          13.7820   29.7410  115.2960 C.3     1  UNL1        0.1098
     47 C          14.8670   30.6280  115.9590 C.3     1  UNL1        0.2096
     48 C          15.6920   31.3790  114.8480 C.3     1  UNL1        0.1386
     49 C          16.9190   32.0610  115.4810 C.3     1  UNL1        0.0913
     50 C          17.7300   31.1190  116.3870 C.3     1  UNL1        0.0117
     51 C          16.7860   30.4690  117.4250 C.3     1  UNL1        0.0730
     52 C          17.4940   29.4880  118.4120 C.3     1  UNL1        0.0011
     53 C          16.5360   29.0040  119.4840 C.2     1  UNL1       -0.0802
     54 C          16.6670   27.8370  120.1420 C.2     1  UNL1       -0.0568
     55 C          15.7250   27.2910  121.2030 C.3     1  UNL1        0.1025
     56 C          14.9860   26.0470  120.6200 C.3     1  UNL1        0.0879
     57 C          13.6860   25.7000  121.3800 C.3     1  UNL1       -0.0239
     58 C          12.4810   25.4560  120.4550 C.3     1  UNL1       -0.0505
     59 C          11.7600   26.7200  119.9590 C.3     1  UNL1       -0.0493
     60 C          12.5790   27.5770  118.9910 C.3     1  UNL1       -0.0114
     61 C          11.7600   28.6350  118.2300 C.3     1  UNL1        0.1280
     62 C          12.7220   30.5280  114.5200 C.3     1  UNL1       -0.0472
     63 C          16.2710   31.1210  112.5450 C.3     1  UNL1        0.0371
     64 C          18.5100   30.0850  115.5640 C.3     1  UNL1       -0.0576
     65 C          18.6930   30.1410  119.1140 C.3     1  UNL1       -0.0566
     66 C          15.2440   29.0610  122.7130 C.3     1  UNL1        0.0373
     67 C          15.5790   23.8760  119.7940 C.3     1  UNL1        0.0369
     68 C          11.0770   29.6230  119.1600 C.ar    1  UNL1       -0.0073
     69 C          11.8250   30.5300  119.9280 C.ar    1  UNL1       -0.0551
     70 C          11.1910   31.4250  120.7910 C.ar    1  UNL1       -0.0614
     71 C           9.8020   31.4250  120.8980 C.ar    1  UNL1       -0.0617
     72 C           9.0460   30.5320  120.1410 C.ar    1  UNL1       -0.0614
     73 C           9.6790   29.6360  119.2760 C.ar    1  UNL1       -0.0551
     74 O          12.7560   27.6560  115.9120 O.2     1  UNL1       -0.2503
     75 O          14.2310   31.5950  116.8020 O.3     1  UNL1       -0.3619
     76 O          16.0980   30.4820  113.8030 O.3     1  UNL1       -0.3718
     77 O          16.4600   33.1780  116.2640 O.3     1  UNL1       -0.3887
     78 O          15.7270   29.7760  116.7380 O.3     1  UNL1       -0.3415
     79 O          14.7940   28.3070  121.5950 O.3     1  UNL1       -0.3732
     80 O          15.9080   24.9330  120.6870 O.3     1  UNL1       -0.3769
     81 O          12.6230   29.4080  117.3690 O.3     1  UNL1       -0.4563
@<TRIPOS>BOND
     1    41    63    1
     2    16    63    1
     3    63    35    1
     4    63    76    1
     5    40    62    1
     6    76    48    1
     7    34    62    1
     8     3    48    1
     9    62    15    1
    10    62    46    1
    11     2    46    1
    12     4    49    1
    13    36    64    1
    14    48    49    1
    15    48    47    1
    16    42    64    1
    17    46    47    1
    18    46    45    1
    19    49    77    1
    20    49    50    1
    21    64    17    1
    22    64    50    1
    23    74    45    2
    24    47    78    1
    25    47    75    1
    26    45    81    1
    27    77     1    1
    28    50     5    1
    29    50    51    1
    30    78    51    1
    31    75    26    1
    32    81    61    1
    33    51     6    1
    34    51    52    1
    35    14    61    1
    36     7    52    1
    37    61    60    1
    38    61    68    1
    39    13    60    1
    40    18    65    1
    41    52    65    1
    42    52    53    1
    43    25    73    1
    44    20    67    1
    45    60    33    1
    46    60    59    1
    47    65    43    1
    48    65    37    1
    49    68    73   ar
    50    68    69   ar
    51    73    72   ar
    52    32    59    1
    53    53    27    1
    54    53    54    2
    55     9    56    1
    56    31    58    1
    57    67    29    1
    58    67    39    1
    59    67    80    1
    60    21    69    1
    61    28    54    1
    62    69    70   ar
    63    59    58    1
    64    59    12    1
    65    72    24    1
    66    72    71   ar
    67    54    55    1
    68    58    11    1
    69    58    57    1
    70    56    80    1
    71    56    55    1
    72    56    57    1
    73    70    71   ar
    74    70    22    1
    75    71    23    1
    76    55    79    1
    77    55     8    1
    78    57    30    1
    79    57    10    1
    80    79    66    1
    81    44    66    1
    82    66    19    1
    83    66    38    1
