@<TRIPOS>MOLECULE
154.02985
 81 83 0 0 0
SMALL
GASTEIGER

@<TRIPOS>ATOM
      1 H          10.2990   30.5200  118.1770 H       1  UNL1        0.2099
      2 H          10.2480   26.2680  113.9270 H       1  UNL1        0.0465
      3 H           8.5420   28.9480  115.6850 H       1  UNL1        0.0676
      4 H          10.0480   30.9710  116.0220 H       1  UNL1        0.0624
      5 H          12.3040   30.4630  116.9870 H       1  UNL1        0.0349
      6 H          12.0180   28.1030  117.5240 H       1  UNL1        0.0606
      7 H          14.1270   28.2670  115.3190 H       1  UNL1        0.0365
      8 H          14.9670   24.1410  117.1050 H       1  UNL1        0.0666
      9 H          15.5430   23.6830  119.8120 H       1  UNL1        0.0625
     10 H          13.8730   22.1670  119.8310 H       1  UNL1        0.0291
     11 H          11.8730   23.5480  119.7440 H       1  UNL1        0.0266
     12 H          12.2200   24.9350  117.7120 H       1  UNL1        0.0267
     13 H          11.6820   22.3080  116.2290 H       1  UNL1        0.0304
     14 H          11.9010   25.2080  115.3080 H       1  UNL1        0.0785
     15 H           7.4690   26.9620  114.9920 H       1  UNL1        0.0239
     16 H           7.8600   30.0030  113.7610 H       1  UNL1        0.0524
     17 H          13.4710   30.5210  114.8840 H       1  UNL1        0.0234
     18 H          14.5610   30.1290  116.8450 H       1  UNL1        0.0236
     19 H          18.4050   24.7570  117.0160 H       1  UNL1        0.0524
     20 H          13.4970   25.3990  122.0790 H       1  UNL1        0.0524
     21 H          11.4160   21.7520  113.8020 H       1  UNL1        0.0621
     22 H          12.4710   21.0810  111.6730 H       1  UNL1        0.0618
     23 H          13.8880   22.6860  110.4200 H       1  UNL1        0.0618
     24 H          14.2390   24.9780  111.3020 H       1  UNL1        0.0618
     25 H          13.1950   25.6670  113.4270 H       1  UNL1        0.0621
     26 H           9.7160   27.9510  117.6080 H       1  UNL1        0.2129
     27 H          13.9920   25.9780  115.8550 H       1  UNL1        0.0573
     28 H          15.0410   26.8510  118.6020 H       1  UNL1        0.0595
     29 H          13.5260   23.6760  121.6590 H       1  UNL1        0.0524
     30 H          14.1590   22.2860  118.1220 H       1  UNL1        0.0291
     31 H          11.7710   22.1060  118.7630 H       1  UNL1        0.0266
     32 H          10.7170   24.0440  117.7210 H       1  UNL1        0.0267
     33 H          13.2190   23.1710  116.1850 H       1  UNL1        0.0304
     34 H           7.7680   25.7850  113.7110 H       1  UNL1        0.0239
     35 H           9.1540   31.2150  114.0280 H       1  UNL1        0.0524
     36 H          11.9210   31.2910  114.5890 H       1  UNL1        0.0234
     37 H          15.7200   28.8610  117.1900 H       1  UNL1        0.0236
     38 H          17.0570   23.9030  116.2410 H       1  UNL1        0.0524
     39 H          15.0590   24.5830  121.8700 H       1  UNL1        0.0524
     40 H           8.2020   27.4600  113.4510 H       1  UNL1        0.0239
     41 H           9.0420   30.3550  112.4850 H       1  UNL1        0.0524
     42 H          12.2140   29.6280  114.0400 H       1  UNL1        0.0234
     43 H          14.3230   29.1020  118.2610 H       1  UNL1        0.0236
     44 H          17.0940   25.6960  116.2800 H       1  UNL1        0.0524
     45 C           9.4140   25.0280  115.4710 C.2     1  UNL1        0.3158
     46 C           9.5770   26.3840  114.7870 C.3     1  UNL1        0.1098
     47 C          10.1450   27.4820  115.7480 C.3     1  UNL1        0.2096
     48 C           9.6080   28.9210  115.4220 C.3     1  UNL1        0.1386
     49 C          10.3470   29.9540  116.2970 C.3     1  UNL1        0.0913
     50 C          11.8760   29.8230  116.2040 C.3     1  UNL1        0.0117
     51 C          12.2950   28.3590  116.4920 C.3     1  UNL1        0.0730
     52 C          13.8350   28.1160  116.3670 C.3     1  UNL1        0.0011
     53 C          14.2080   26.6710  116.6640 C.2     1  UNL1       -0.0802
     54 C          14.8020   26.1910  117.7710 C.2     1  UNL1       -0.0568
     55 C          15.2220   24.7550  117.9740 C.3     1  UNL1        0.1025
     56 C          14.6660   24.0740  119.2740 C.3     1  UNL1        0.0879
     57 C          13.7670   22.8500  118.9770 C.3     1  UNL1       -0.0239
     58 C          12.2600   23.0870  118.8270 C.3     1  UNL1       -0.0505
     59 C          11.8040   23.9280  117.6380 C.3     1  UNL1       -0.0493
     60 C          12.1370   23.3060  116.2760 C.3     1  UNL1       -0.0114
     61 C          11.6300   24.1750  115.1090 C.3     1  UNL1        0.1280
     62 C           8.1780   26.6730  114.2080 C.3     1  UNL1       -0.0472
     63 C           8.9060   30.2570  113.5650 C.3     1  UNL1        0.0371
     64 C          12.3930   30.3380  114.8520 C.3     1  UNL1       -0.0576
     65 C          14.6510   29.1050  117.2160 C.3     1  UNL1       -0.0566
     66 C          17.3270   24.7820  116.8330 C.3     1  UNL1        0.0373
     67 C          14.0290   24.6350  121.5060 C.3     1  UNL1        0.0369
     68 C          12.2440   23.7520  113.7880 C.ar    1  UNL1       -0.0073
     69 C          12.0430   22.4640  113.2690 C.ar    1  UNL1       -0.0551
     70 C          12.6340   22.0820  112.0640 C.ar    1  UNL1       -0.0614
     71 C          13.4280   22.9840  111.3590 C.ar    1  UNL1       -0.0617
     72 C          13.6260   24.2710  111.8550 C.ar    1  UNL1       -0.0614
     73 C          13.0350   24.6550  113.0610 C.ar    1  UNL1       -0.0551
     74 O           8.4710   24.7580  116.2130 O.2     1  UNL1       -0.2503
     75 O           9.8130   27.1260  117.0910 O.3     1  UNL1       -0.3619
     76 O           9.7700   29.2250  114.0270 O.3     1  UNL1       -0.3718
     77 O           9.9410   29.7710  117.6640 O.3     1  UNL1       -0.3887
     78 O          11.5890   27.4680  115.6030 O.3     1  UNL1       -0.3415
     79 O          16.6640   24.7600  118.0920 O.3     1  UNL1       -0.3732
     80 O          14.0060   25.0140  120.1360 O.3     1  UNL1       -0.3769
     81 O          10.2070   24.0290  115.0060 O.3     1  UNL1       -0.4563
@<TRIPOS>BOND
     1    23    71    1
     2    24    72    1
     3    71    72   ar
     4    71    70   ar
     5    22    70    1
     6    72    73   ar
     7    70    69   ar
     8    41    63    1
     9    73    25    1
    10    73    68   ar
    11    69    68   ar
    12    69    21    1
    13    40    62    1
    14    63    16    1
    15    63    76    1
    16    63    35    1
    17    34    62    1
    18    68    61    1
    19     2    46    1
    20    76    48    1
    21    42    64    1
    22    62    46    1
    23    62    15    1
    24    36    64    1
    25    46    45    1
    26    46    47    1
    27    64    17    1
    28    64    50    1
    29    81    61    1
    30    81    45    1
    31    61    14    1
    32    61    60    1
    33     7    52    1
    34    48     3    1
    35    48    47    1
    36    48    49    1
    37    45    74    2
    38    78    47    1
    39    78    51    1
    40    47    75    1
    41    27    53    1
    42     4    49    1
    43    33    60    1
    44    50    49    1
    45    50    51    1
    46    50     5    1
    47    13    60    1
    48    38    66    1
    49    60    59    1
    50    44    66    1
    51    49    77    1
    52    52    51    1
    53    52    53    1
    54    52    65    1
    55    51     6    1
    56    53    54    2
    57    66    19    1
    58    66    79    1
    59    18    65    1
    60    75    26    1
    61     8    55    1
    62    37    65    1
    63    65    43    1
    64    59    12    1
    65    59    32    1
    66    59    58    1
    67    77     1    1
    68    54    55    1
    69    54    28    1
    70    55    79    1
    71    55    56    1
    72    30    57    1
    73    31    58    1
    74    58    57    1
    75    58    11    1
    76    57    56    1
    77    57    10    1
    78    56     9    1
    79    56    80    1
    80    80    67    1
    81    67    29    1
    82    67    39    1
    83    67    20    1
