@<TRIPOS>MOLECULE
136.45444
 81 83 0 0 0
SMALL
GASTEIGER

@<TRIPOS>ATOM
      1 H          12.5340   33.0710  111.7800 H       1  UNL1        0.2099
      2 H          13.4670   27.3610  112.2270 H       1  UNL1        0.0465
      3 H          11.9340   29.8110  111.0170 H       1  UNL1        0.0676
      4 H          13.5590   31.6900  110.3970 H       1  UNL1        0.0624
      5 H          14.7820   32.6840  112.3760 H       1  UNL1        0.0349
      6 H          13.5880   31.5330  114.1080 H       1  UNL1        0.0606
      7 H          16.0710   32.2190  114.4470 H       1  UNL1        0.0365
      8 H          18.7460   28.4710  114.3640 H       1  UNL1        0.0666
      9 H          19.9020   27.5850  116.3960 H       1  UNL1        0.0625
     10 H          18.1360   26.2990  117.0830 H       1  UNL1        0.0291
     11 H          16.4720   28.7830  117.2140 H       1  UNL1        0.0266
     12 H          15.3420   26.0220  116.5340 H       1  UNL1        0.0267
     13 H          14.0020   28.6130  117.4460 H       1  UNL1        0.0304
     14 H          12.6970   26.0180  116.4410 H       1  UNL1        0.0785
     15 H          10.5270   27.7010  113.0570 H       1  UNL1        0.0239
     16 H          12.4890   28.5980  109.1200 H       1  UNL1        0.0524
     17 H          16.8220   31.4750  112.0260 H       1  UNL1        0.0234
     18 H          14.3580   32.1190  116.1890 H       1  UNL1        0.0236
     19 H          21.4120   30.6420  113.6700 H       1  UNL1        0.0524
     20 H          20.3050   29.8280  119.0440 H       1  UNL1        0.0524
     21 H          11.3690   29.5230  116.6710 H       1  UNL1        0.0621
     22 H           9.4270   30.1240  118.0710 H       1  UNL1        0.0618
     23 H           8.4340   28.4550  119.6160 H       1  UNL1        0.0618
     24 H           9.3970   26.1730  119.7570 H       1  UNL1        0.0618
     25 H          11.3390   25.5540  118.3670 H       1  UNL1        0.0621
     26 H          11.6660   30.8160  113.2130 H       1  UNL1        0.2129
     27 H          16.5910   29.3900  113.8470 H       1  UNL1        0.0573
     28 H          18.0230   30.9580  116.0610 H       1  UNL1        0.0595
     29 H          21.1290   28.9860  117.7190 H       1  UNL1        0.0524
     30 H          17.5900   26.8410  115.5130 H       1  UNL1        0.0291
     31 H          16.5660   27.3990  118.2870 H       1  UNL1        0.0266
     32 H          15.2510   27.4770  115.5360 H       1  UNL1        0.0267
     33 H          14.0160   27.0860  118.3110 H       1  UNL1        0.0304
     34 H          11.2540   26.2440  112.3850 H       1  UNL1        0.0239
     35 H          13.4740   30.0660  108.8170 H       1  UNL1        0.0524
     36 H          15.9380   31.4150  110.5080 H       1  UNL1        0.0234
     37 H          15.8580   31.4660  116.8380 H       1  UNL1        0.0236
     38 H          20.3980   29.3330  113.0340 H       1  UNL1        0.0524
     39 H          20.2390   30.5220  117.4240 H       1  UNL1        0.0524
     40 H          11.1270   27.6910  111.3860 H       1  UNL1        0.0239
     41 H          14.2090   28.4550  108.7040 H       1  UNL1        0.0524
     42 H          15.9850   29.9900  111.5590 H       1  UNL1        0.0234
     43 H          14.5530   30.3720  116.3470 H       1  UNL1        0.0236
     44 H          19.6830   30.9350  113.4110 H       1  UNL1        0.0524
     45 C          12.9750   27.0730  114.2050 C.2     1  UNL1        0.3158
     46 C          12.7040   27.7830  112.8950 C.3     1  UNL1        0.1098
     47 C          12.8960   29.3230  112.9060 C.3     1  UNL1        0.2096
     48 C          12.9520   29.8670  111.4280 C.3     1  UNL1        0.1386
     49 C          13.3960   31.3450  111.4240 C.3     1  UNL1        0.0913
     50 C          14.6640   31.5970  112.2620 C.3     1  UNL1        0.0117
     51 C          14.4480   31.0080  113.6710 C.3     1  UNL1        0.0730
     52 C          15.6360   31.2340  114.6620 C.3     1  UNL1        0.0011
     53 C          16.7410   30.1980  114.5620 C.2     1  UNL1       -0.0802
     54 C          17.8530   30.1820  115.3190 C.2     1  UNL1       -0.0568
     55 C          18.9170   29.1180  115.2350 C.3     1  UNL1        0.1025
     56 C          18.9860   28.1850  116.4930 C.3     1  UNL1        0.0879
     57 C          17.8060   27.1900  116.5310 C.3     1  UNL1       -0.0239
     58 C          16.5340   27.6920  117.2310 C.3     1  UNL1       -0.0505
     59 C          15.2790   27.1160  116.5690 C.3     1  UNL1       -0.0493
     60 C          14.0000   27.5270  117.3060 C.3     1  UNL1       -0.0114
     61 C          12.7120   27.1070  116.5740 C.3     1  UNL1        0.1280
     62 C          11.3260   27.3370  112.4010 C.3     1  UNL1       -0.0472
     63 C          13.4740   29.0590  109.2430 C.3     1  UNL1        0.0371
     64 C          15.9180   31.0810  111.5510 C.3     1  UNL1       -0.0576
     65 C          15.0750   31.2960  116.0920 C.3     1  UNL1       -0.0566
     66 C          20.4190   30.1870  113.7180 C.3     1  UNL1        0.0373
     67 C          20.2490   29.5820  117.9800 C.3     1  UNL1        0.0369
     68 C          11.4970   27.4910  117.4080 C.ar    1  UNL1       -0.0073
     69 C          10.9450   28.7800  117.3450 C.ar    1  UNL1       -0.0551
     70 C           9.8460   29.1240  118.1350 C.ar    1  UNL1       -0.0614
     71 C           9.2890   28.1860  119.0010 C.ar    1  UNL1       -0.0617
     72 C           9.8300   26.9040  119.0800 C.ar    1  UNL1       -0.0614
     73 C          10.9280   26.5580  118.2900 C.ar    1  UNL1       -0.0551
     74 O          13.4100   25.9230  114.2360 O.2     1  UNL1       -0.2503
     75 O          11.7910   29.9230  113.5930 O.3     1  UNL1       -0.3619
     76 O          13.8410   29.0830  110.6160 O.3     1  UNL1       -0.3718
     77 O          12.3180   32.1360  111.9570 O.3     1  UNL1       -0.3887
     78 O          14.1210   29.6140  113.5950 O.3     1  UNL1       -0.3415
     79 O          20.1930   29.7600  115.0560 O.3     1  UNL1       -0.3732
     80 O          19.0470   28.8570  117.7620 O.3     1  UNL1       -0.3769
     81 O          12.6020   27.7740  115.3000 O.3     1  UNL1       -0.4563
@<TRIPOS>BOND
     1    41    63    1
     2    35    63    1
     3    16    63    1
     4    63    76    1
     5     4    49    1
     6    36    64    1
     7    76    48    1
     8     3    48    1
     9    40    62    1
    10    49    48    1
    11    49    77    1
    12    49    50    1
    13    48    47    1
    14    64    42    1
    15    64    17    1
    16    64    50    1
    17     1    77    1
    18     2    46    1
    19    50     5    1
    20    50    51    1
    21    34    62    1
    22    62    46    1
    23    62    15    1
    24    46    47    1
    25    46    45    1
    26    47    75    1
    27    47    78    1
    28    38    66    1
    29    26    75    1
    30    44    66    1
    31    78    51    1
    32    19    66    1
    33    51     6    1
    34    51    52    1
    35    66    79    1
    36    27    53    1
    37    45    74    2
    38    45    81    1
    39     8    55    1
    40     7    52    1
    41    53    52    1
    42    53    54    2
    43    52    65    1
    44    79    55    1
    45    55    54    1
    46    55    56    1
    47    81    61    1
    48    54    28    1
    49    30    57    1
    50    32    59    1
    51    65    18    1
    52    65    43    1
    53    65    37    1
    54     9    56    1
    55    14    61    1
    56    56    57    1
    57    56    80    1
    58    57    10    1
    59    57    58    1
    60    12    59    1
    61    59    58    1
    62    59    60    1
    63    61    60    1
    64    61    68    1
    65    21    69    1
    66    11    58    1
    67    58    31    1
    68    60    13    1
    69    60    33    1
    70    69    68   ar
    71    69    70   ar
    72    68    73   ar
    73    39    67    1
    74    29    67    1
    75    80    67    1
    76    67    20    1
    77    22    70    1
    78    70    71   ar
    79    73    25    1
    80    73    72   ar
    81    71    72   ar
    82    71    23    1
    83    72    24    1
