@<TRIPOS>MOLECULE
143.13184
 81 83 0 0 0
SMALL
GASTEIGER

@<TRIPOS>ATOM
      1 H          15.7240   32.9830  114.7460 H       1  UNL1        0.2099
      2 H          16.0030   27.1020  116.1190 H       1  UNL1        0.0465
      3 H          14.6650   29.8600  113.7750 H       1  UNL1        0.0676
      4 H          16.5000   31.5700  113.2250 H       1  UNL1        0.0624
      5 H          17.9180   32.2620  115.1610 H       1  UNL1        0.0349
      6 H          16.6470   31.2050  116.9570 H       1  UNL1        0.0606
      7 H          19.3280   29.7590  116.9870 H       1  UNL1        0.0365
      8 H          18.8160   30.0700  121.8890 H       1  UNL1        0.0666
      9 H          17.2830   28.3140  120.7490 H       1  UNL1        0.0625
     10 H          15.6010   30.1370  119.9530 H       1  UNL1        0.0291
     11 H          14.3170   27.8530  121.5240 H       1  UNL1        0.0266
     12 H          13.7450   29.2490  118.8570 H       1  UNL1        0.0267
     13 H          11.7960   27.9230  118.6140 H       1  UNL1        0.0304
     14 H          13.8930   25.9030  119.4630 H       1  UNL1        0.0785
     15 H          14.1060   27.4970  113.7740 H       1  UNL1        0.0239
     16 H          15.0900   28.8500  111.7420 H       1  UNL1        0.0524
     17 H          19.7480   30.7490  114.6970 H       1  UNL1        0.0234
     18 H          19.8310   32.1290  116.4160 H       1  UNL1        0.0236
     19 H          17.0630   32.5530  123.6080 H       1  UNL1        0.0524
     20 H          17.5660   27.3650  124.1030 H       1  UNL1        0.0524
     21 H          10.6850   26.2870  117.6660 H       1  UNL1        0.0621
     22 H           9.4810   24.3550  116.7580 H       1  UNL1        0.0618
     23 H          10.5940   22.1450  116.5800 H       1  UNL1        0.0618
     24 H          12.9470   21.8850  117.3240 H       1  UNL1        0.0618
     25 H          14.1760   23.8130  118.2500 H       1  UNL1        0.0621
     26 H          14.6190   30.8450  116.0040 H       1  UNL1        0.2129
     27 H          17.6890   29.1250  118.7420 H       1  UNL1        0.0573
     28 H          18.9330   31.6640  119.9390 H       1  UNL1        0.0595
     29 H          17.7440   26.8230  122.4230 H       1  UNL1        0.0524
     30 H          15.0000   30.1720  121.6140 H       1  UNL1        0.0291
     31 H          15.2420   27.5850  120.0470 H       1  UNL1        0.0266
     32 H          12.7880   29.4000  120.3160 H       1  UNL1        0.0267
     33 H          11.9910   27.1270  120.1610 H       1  UNL1        0.0304
     34 H          14.3870   25.9590  114.5820 H       1  UNL1        0.0239
     35 H          16.3430   30.1200  111.5700 H       1  UNL1        0.0524
     36 H          18.7950   30.8400  113.2220 H       1  UNL1        0.0234
     37 H          20.2840   31.8050  118.0720 H       1  UNL1        0.0236
     38 H          16.4030   30.9180  123.5920 H       1  UNL1        0.0524
     39 H          18.7510   28.1650  123.0550 H       1  UNL1        0.0524
     40 H          15.7290   26.7480  113.7830 H       1  UNL1        0.0239
     41 H          16.7610   28.4150  111.3360 H       1  UNL1        0.0524
     42 H          18.6770   29.4220  114.2840 H       1  UNL1        0.0234
     43 H          18.7840   32.6920  117.7210 H       1  UNL1        0.0236
     44 H          18.1740   31.1800  123.7560 H       1  UNL1        0.0524
     45 C          13.9610   27.4530  116.5790 C.2     1  UNL1        0.3158
     46 C          15.1680   27.6700  115.6830 C.3     1  UNL1        0.1098
     47 C          15.5860   29.1770  115.6140 C.3     1  UNL1        0.2096
     48 C          15.6890   29.7730  114.1640 C.3     1  UNL1        0.1386
     49 C          16.3190   31.1830  114.2330 C.3     1  UNL1        0.0913
     50 C          17.6380   31.2090  115.0330 C.3     1  UNL1        0.0117
     51 C          17.3950   30.5970  116.4310 C.3     1  UNL1        0.0730
     52 C          18.6510   30.5380  117.3640 C.3     1  UNL1        0.0011
     53 C          18.2210   30.0760  118.7580 C.2     1  UNL1       -0.0802
     54 C          18.3990   30.7160  119.9300 C.2     1  UNL1       -0.0568
     55 C          17.9160   30.3220  121.3150 C.3     1  UNL1        0.1025
     56 C          16.9060   29.1340  121.3720 C.3     1  UNL1        0.0879
     57 C          15.5090   29.5460  120.8700 C.3     1  UNL1       -0.0239
     58 C          14.6360   28.3190  120.5850 C.3     1  UNL1       -0.0505
     59 C          13.4150   28.7020  119.7470 C.3     1  UNL1       -0.0493
     60 C          12.5480   27.5170  119.2990 C.3     1  UNL1       -0.0114
     61 C          13.3230   26.3570  118.6400 C.3     1  UNL1        0.1280
     62 C          14.8310   26.9410  114.3770 C.3     1  UNL1       -0.0472
     63 C          16.1400   29.1040  111.9150 C.3     1  UNL1        0.0371
     64 C          18.7710   30.5110  114.2670 C.3     1  UNL1       -0.0576
     65 C          19.4240   31.8650  117.3950 C.3     1  UNL1       -0.0566
     66 C          17.2530   31.5280  123.2790 C.3     1  UNL1        0.0373
     67 C          17.7640   27.6970  123.0800 C.3     1  UNL1        0.0369
     68 C          12.5200   25.1980  118.0650 C.ar    1  UNL1       -0.0073
     69 C          11.1960   25.3280  117.6260 C.ar    1  UNL1       -0.0551
     70 C          10.5060   24.2330  117.0980 C.ar    1  UNL1       -0.0614
     71 C          11.1320   22.9940  116.9940 C.ar    1  UNL1       -0.0617
     72 C          12.4520   22.8480  117.4110 C.ar    1  UNL1       -0.0614
     73 C          13.1410   23.9420  117.9380 C.ar    1  UNL1       -0.0551
     74 O          12.8100   27.7440  116.2750 O.2     1  UNL1       -0.2503
     75 O          14.6590   29.9470  116.3900 O.3     1  UNL1       -0.3619
     76 O          16.4730   28.9490  113.2890 O.3     1  UNL1       -0.3718
     77 O          15.3750   32.0770  114.8470 O.3     1  UNL1       -0.3887
     78 O          16.8740   29.2590  116.2770 O.3     1  UNL1       -0.3415
     79 O          17.3750   31.5380  121.8630 O.3     1  UNL1       -0.3732
     80 O          16.7470   28.6190  122.7100 O.3     1  UNL1       -0.3769
     81 O          14.3370   26.7940  117.7090 O.3     1  UNL1       -0.4563
@<TRIPOS>BOND
     1    41    63    1
     2    35    63    1
     3    16    63    1
     4    63    76    1
     5    36    64    1
     6     4    49    1
     7    76    48    1
     8    15    62    1
     9     3    48    1
    10    40    62    1
    11    48    49    1
    12    48    47    1
    13    49    77    1
    14    49    50    1
    15    64    42    1
    16    64    17    1
    17    64    50    1
    18    62    34    1
    19    62    46    1
    20     1    77    1
    21    50     5    1
    22    50    51    1
    23    47    46    1
    24    47    78    1
    25    47    75    1
    26    46     2    1
    27    46    45    1
    28    26    75    1
    29    74    45    2
    30    78    51    1
    31    18    65    1
    32    51     6    1
    33    51    52    1
    34    45    81    1
    35    23    71    1
    36    22    70    1
    37     7    52    1
    38    71    70   ar
    39    71    72   ar
    40    70    69   ar
    41    24    72    1
    42    52    65    1
    43    52    53    1
    44    65    43    1
    45    65    37    1
    46    72    73   ar
    47    69    21    1
    48    69    68   ar
    49    81    61    1
    50    73    68   ar
    51    73    25    1
    52    68    61    1
    53    13    60    1
    54    61    60    1
    55    61    14    1
    56    27    53    1
    57    53    54    2
    58    12    59    1
    59    60    59    1
    60    60    33    1
    61    59    32    1
    62    59    58    1
    63    54    28    1
    64    54    55    1
    65    10    57    1
    66    31    58    1
    67    58    57    1
    68    58    11    1
    69     9    56    1
    70    57    56    1
    71    57    30    1
    72    55    56    1
    73    55    79    1
    74    55     8    1
    75    56    80    1
    76    79    66    1
    77    29    67    1
    78    80    67    1
    79    39    67    1
    80    67    20    1
    81    66    38    1
    82    66    19    1
    83    66    44    1
