@<TRIPOS>MOLECULE
133.25464
 81 83 0 0 0
SMALL
GASTEIGER

@<TRIPOS>ATOM
      1 H          18.8480   24.9380  116.9630 H       1  UNL1        0.2099
      2 H          14.2210   26.9320  113.9230 H       1  UNL1        0.0465
      3 H          17.4930   27.1110  114.7070 H       1  UNL1        0.0676
      4 H          18.4540   24.7430  114.7910 H       1  UNL1        0.0624
      5 H          17.3520   23.2120  116.4040 H       1  UNL1        0.0349
      6 H          15.9810   24.8780  117.5800 H       1  UNL1        0.0606
      7 H          13.9610   22.9820  116.3100 H       1  UNL1        0.0365
      8 H          10.6550   23.4570  119.4600 H       1  UNL1        0.0666
      9 H          10.6270   25.7140  118.1390 H       1  UNL1        0.0625
     10 H          12.9430   26.4020  119.0590 H       1  UNL1        0.0291
     11 H          10.7630   28.4830  119.5380 H       1  UNL1        0.0266
     12 H          13.6840   28.4930  118.6210 H       1  UNL1        0.0267
     13 H          13.4280   30.8990  118.2080 H       1  UNL1        0.0304
     14 H          11.5290   29.3160  116.3870 H       1  UNL1        0.0785
     15 H          15.9020   29.2950  114.9040 H       1  UNL1        0.0239
     16 H          17.9180   27.0330  112.4510 H       1  UNL1        0.0524
     17 H          15.8470   22.1610  114.8160 H       1  UNL1        0.0234
     18 H          15.8650   21.5020  116.9090 H       1  UNL1        0.0236
     19 H          12.0210   23.7500  122.6640 H       1  UNL1        0.0524
     20 H           7.7450   25.6600  120.1370 H       1  UNL1        0.0524
     21 H          14.3640   31.8240  116.0720 H       1  UNL1        0.0621
     22 H          14.1620   33.8690  114.7040 H       1  UNL1        0.0618
     23 H          12.0310   34.3900  113.5440 H       1  UNL1        0.0618
     24 H          10.0960   32.8530  113.7610 H       1  UNL1        0.0618
     25 H          10.2760   30.8090  115.1280 H       1  UNL1        0.0621
     26 H          16.8270   26.9060  117.0500 H       1  UNL1        0.2129
     27 H          14.2280   24.0870  119.1930 H       1  UNL1        0.0573
     28 H          11.8510   23.4590  117.3690 H       1  UNL1        0.0595
     29 H           8.3640   25.9020  118.4920 H       1  UNL1        0.0524
     30 H          12.1370   26.7850  120.5860 H       1  UNL1        0.0291
     31 H          11.1960   27.9170  117.9340 H       1  UNL1        0.0266
     32 H          12.9610   29.3490  119.9710 H       1  UNL1        0.0267
     33 H          11.6790   30.7940  118.3840 H       1  UNL1        0.0304
     34 H          14.6130   29.4140  113.6970 H       1  UNL1        0.0239
     35 H          18.3690   25.3120  112.6700 H       1  UNL1        0.0524
     36 H          17.1030   22.9500  113.8730 H       1  UNL1        0.0234
     37 H          14.6070   21.3170  118.1160 H       1  UNL1        0.0236
     38 H          11.0130   25.0480  122.0210 H       1  UNL1        0.0524
     39 H           8.5880   24.3290  119.3230 H       1  UNL1        0.0524
     40 H          16.0370   28.4460  113.3580 H       1  UNL1        0.0239
     41 H          17.1570   25.7710  111.4630 H       1  UNL1        0.0524
     42 H          15.4890   23.6760  114.0080 H       1  UNL1        0.0234
     43 H          16.0360   22.2990  118.4790 H       1  UNL1        0.0236
     44 H          10.5790   23.3300  121.7220 H       1  UNL1        0.0524
     45 C          13.4210   27.9560  115.5550 C.2     1  UNL1        0.3158
     46 C          14.6390   27.5060  114.7620 C.3     1  UNL1        0.1098
     47 C          15.5740   26.5830  115.5870 C.3     1  UNL1        0.2096
     48 C          16.8510   26.2190  114.7380 C.3     1  UNL1        0.1386
     49 C          17.6340   25.0890  115.4290 C.3     1  UNL1        0.0913
     50 C          16.7400   23.8970  115.8030 C.3     1  UNL1        0.0117
     51 C          15.5710   24.4040  116.6790 C.3     1  UNL1        0.0730
     52 C          14.5980   23.2790  117.1540 C.3     1  UNL1        0.0011
     53 C          13.7150   23.7590  118.2890 C.2     1  UNL1       -0.0802
     54 C          12.3710   23.7670  118.2740 C.2     1  UNL1       -0.0568
     55 C          11.4770   24.1820  119.4290 C.3     1  UNL1        0.1025
     56 C          10.9250   25.6190  119.1930 C.3     1  UNL1        0.0879
     57 C          11.9850   26.6910  119.5050 C.3     1  UNL1       -0.0239
     58 C          11.5810   28.0560  118.9460 C.3     1  UNL1       -0.0505
     59 C          12.7750   29.0140  118.9430 C.3     1  UNL1       -0.0493
     60 C          12.5650   30.2400  118.0500 C.3     1  UNL1       -0.0114
     61 C          12.4390   29.9020  116.5520 C.3     1  UNL1        0.1280
     62 C          15.3410   28.7320  114.1500 C.3     1  UNL1       -0.0472
     63 C          17.5500   26.0030  112.4570 C.3     1  UNL1        0.0371
     64 C          16.2670   23.1370  114.5560 C.3     1  UNL1       -0.0576
     65 C          15.3200   22.0350  117.6920 C.3     1  UNL1       -0.0566
     66 C          11.4000   24.0470  121.8150 C.3     1  UNL1        0.0373
     67 C           8.5600   25.4140  119.4510 C.3     1  UNL1        0.0369
     68 C          12.3330   31.1660  115.7120 C.ar    1  UNL1       -0.0073
     69 C          13.4210   32.0440  115.5760 C.ar    1  UNL1       -0.0551
     70 C          13.3120   33.1990  114.8010 C.ar    1  UNL1       -0.0614
     71 C          12.1150   33.4910  114.1490 C.ar    1  UNL1       -0.0617
     72 C          11.0280   32.6280  114.2720 C.ar    1  UNL1       -0.0614
     73 C          11.1350   31.4730  115.0490 C.ar    1  UNL1       -0.0551
     74 O          12.3700   27.3260  115.6010 O.2     1  UNL1       -0.2503
     75 O          15.9700   27.2840  116.7710 O.3     1  UNL1       -0.3619
     76 O          16.4930   25.8510  113.3960 O.3     1  UNL1       -0.3718
     77 O          18.2410   25.6200  116.6200 O.3     1  UNL1       -0.3887
     78 O          14.8310   25.4010  115.9460 O.3     1  UNL1       -0.3415
     79 O          12.2170   24.0470  120.6530 O.3     1  UNL1       -0.3732
     80 O           9.7730   25.8960  120.0140 O.3     1  UNL1       -0.3769
     81 O          13.6080   29.1890  116.1060 O.3     1  UNL1       -0.4563
@<TRIPOS>BOND
     1    41    63    1
     2    16    63    1
     3    63    35    1
     4    63    76    1
     5    40    62    1
     6    76    48    1
     7    23    71    1
     8    34    62    1
     9    24    72    1
    10    36    64    1
    11     2    46    1
    12    42    64    1
    13    71    72   ar
    14    71    70   ar
    15    62    46    1
    16    62    15    1
    17    72    73   ar
    18    64    17    1
    19    64    50    1
    20    22    70    1
    21     3    48    1
    22    48    49    1
    23    48    47    1
    24    46    45    1
    25    46    47    1
    26     4    49    1
    27    70    69   ar
    28    73    25    1
    29    73    68   ar
    30    49    50    1
    31    49    77    1
    32    45    74    2
    33    45    81    1
    34    69    68   ar
    35    69    21    1
    36    47    78    1
    37    47    75    1
    38    68    61    1
    39    50     5    1
    40    50    51    1
    41    78    51    1
    42    81    61    1
    43     7    52    1
    44    14    61    1
    45    61    60    1
    46    77     1    1
    47    51    52    1
    48    51     6    1
    49    75    26    1
    50    18    65    1
    51    52    65    1
    52    52    53    1
    53    28    54    1
    54    65    37    1
    55    65    43    1
    56    31    58    1
    57    60    13    1
    58    60    33    1
    59    60    59    1
    60     9    56    1
    61    54    53    2
    62    54    55    1
    63    53    27    1
    64    29    67    1
    65    12    59    1
    66    59    58    1
    67    59    32    1
    68    58    57    1
    69    58    11    1
    70    10    57    1
    71    56    55    1
    72    56    57    1
    73    56    80    1
    74    39    67    1
    75    55     8    1
    76    55    79    1
    77    67    80    1
    78    67    20    1
    79    57    30    1
    80    79    66    1
    81    44    66    1
    82    66    38    1
    83    66    19    1
