@<TRIPOS>MOLECULE
139.27810
 81 83 0 0 0
SMALL
GASTEIGER

@<TRIPOS>ATOM
      1 H          15.9640   25.3400  112.0340 H       1  UNL1        0.2099
      2 H          11.1850   28.5620  113.2120 H       1  UNL1        0.0465
      3 H          14.4620   28.3650  112.5000 H       1  UNL1        0.0676
      4 H          14.8260   26.6370  110.6560 H       1  UNL1        0.0624
      5 H          14.0040   24.3540  111.1740 H       1  UNL1        0.0349
      6 H          13.4960   24.6560  113.5510 H       1  UNL1        0.0606
      7 H          10.8250   24.0750  112.2010 H       1  UNL1        0.0365
      8 H          10.3970   21.7880  116.1470 H       1  UNL1        0.0666
      9 H          10.0060   24.4470  116.9210 H       1  UNL1        0.0625
     10 H          11.9950   24.0650  118.6400 H       1  UNL1        0.0291
     11 H          10.2690   24.7460  120.6190 H       1  UNL1        0.0266
     12 H          11.8420   26.3630  119.9330 H       1  UNL1        0.0267
     13 H          10.3080   26.4920  117.3090 H       1  UNL1        0.0304
     14 H          10.6950   28.8160  117.7350 H       1  UNL1        0.0785
     15 H          13.6310   29.6960  114.6720 H       1  UNL1        0.0239
     16 H          14.0510   29.8770  110.8140 H       1  UNL1        0.0524
     17 H          11.8800   24.5670  110.0270 H       1  UNL1        0.0234
     18 H          12.5070   22.6890  110.9890 H       1  UNL1        0.0236
     19 H          13.3840   20.3400  117.2260 H       1  UNL1        0.0524
     20 H           7.0650   22.5910  117.1070 H       1  UNL1        0.0524
     21 H          14.2400   27.4600  117.7410 H       1  UNL1        0.0621
     22 H          15.9790   28.2780  119.2930 H       1  UNL1        0.0618
     23 H          15.4170   29.9710  121.0180 H       1  UNL1        0.0618
     24 H          13.1020   30.8450  121.1880 H       1  UNL1        0.0618
     25 H          11.3500   30.0350  119.6510 H       1  UNL1        0.0621
     26 H          14.6160   26.5660  114.1310 H       1  UNL1        0.2129
     27 H          10.3130   22.5160  113.9380 H       1  UNL1        0.0573
     28 H          12.4660   24.0080  115.5320 H       1  UNL1        0.0595
     29 H           7.7370   24.1930  116.7490 H       1  UNL1        0.0524
     30 H          10.8850   22.9350  119.4180 H       1  UNL1        0.0291
     31 H           9.1880   25.0430  119.2710 H       1  UNL1        0.0266
     32 H          10.2520   27.1100  119.8070 H       1  UNL1        0.0267
     33 H          11.9910   26.0580  117.5090 H       1  UNL1        0.0304
     34 H          12.0770   30.5310  114.5600 H       1  UNL1        0.0239
     35 H          14.1610   28.4970  109.6750 H       1  UNL1        0.0524
     36 H          12.8920   25.8770  109.4410 H       1  UNL1        0.0234
     37 H          11.5990   21.6510  112.0630 H       1  UNL1        0.0236
     38 H          11.7080   20.0070  116.7490 H       1  UNL1        0.0524
     39 H           8.2770   22.7560  115.8210 H       1  UNL1        0.0524
     40 H          12.9900   30.1850  113.0970 H       1  UNL1        0.0239
     41 H          12.7420   29.5560  109.6610 H       1  UNL1        0.0524
     42 H          11.6090   26.1940  110.6270 H       1  UNL1        0.0234
     43 H          13.2270   22.1750  112.5210 H       1  UNL1        0.0236
     44 H          12.8330   20.8150  115.6080 H       1  UNL1        0.0524
     45 C          11.2750   28.1660  115.2600 C.2     1  UNL1        0.3158
     46 C          11.9880   28.4360  113.9510 C.3     1  UNL1        0.1098
     47 C          12.8920   27.2510  113.5110 C.3     1  UNL1        0.2096
     48 C          13.6810   27.6480  112.2080 C.3     1  UNL1        0.1386
     49 C          14.3670   26.4040  111.6220 C.3     1  UNL1        0.0913
     50 C          13.3980   25.2230  111.4600 C.3     1  UNL1        0.0117
     51 C          12.7200   24.9210  112.8220 C.3     1  UNL1        0.0730
     52 C          11.7060   23.7300  112.7590 C.3     1  UNL1        0.0011
     53 C          11.1650   23.1860  114.0720 C.2     1  UNL1       -0.0802
     54 C          11.6250   23.3530  115.3230 C.2     1  UNL1       -0.0568
     55 C          11.0600   22.5870  116.5050 C.3     1  UNL1        0.1025
     56 C          10.2370   23.5160  117.4460 C.3     1  UNL1        0.0879
     57 C          10.9350   23.8310  118.7850 C.3     1  UNL1       -0.0239
     58 C          10.2470   24.9760  119.5460 C.3     1  UNL1       -0.0505
     59 C          10.9070   26.3510  119.3610 C.3     1  UNL1       -0.0493
     60 C          11.2010   26.7080  117.9030 C.3     1  UNL1       -0.0114
     61 C          11.5810   28.1740  117.6470 C.3     1  UNL1        0.1280
     62 C          12.7160   29.7840  114.0760 C.3     1  UNL1       -0.0472
     63 C          13.4910   29.0870  110.3040 C.3     1  UNL1        0.0371
     64 C          12.3890   25.4860  110.3310 C.3     1  UNL1       -0.0576
     65 C          12.2950   22.4990  112.0430 C.3     1  UNL1       -0.0566
     66 C          12.5320   20.7200  116.6550 C.3     1  UNL1        0.0373
     67 C           7.9690   23.1250  116.8030 C.3     1  UNL1        0.0369
     68 C          12.6640   28.6840  118.5810 C.ar    1  UNL1       -0.0073
     69 C          13.9800   28.2000  118.4970 C.ar    1  UNL1       -0.0551
     70 C          14.9650   28.6610  119.3700 C.ar    1  UNL1       -0.0614
     71 C          14.6490   29.6120  120.3380 C.ar    1  UNL1       -0.0617
     72 C          13.3480   30.1030  120.4330 C.ar    1  UNL1       -0.0614
     73 C          12.3610   29.6430  119.5600 C.ar    1  UNL1       -0.0551
     74 O          10.0740   27.9420  115.3510 O.2     1  UNL1       -0.2503
     75 O          13.8240   26.9520  114.5560 O.3     1  UNL1       -0.3619
     76 O          12.8120   28.2640  111.2440 O.3     1  UNL1       -0.3718
     77 O          15.4390   26.0180  112.5000 O.3     1  UNL1       -0.3887
     78 O          12.0430   26.1060  113.2850 O.3     1  UNL1       -0.3415
     79 O          12.1620   21.9810  117.1970 O.3     1  UNL1       -0.3732
     80 O           8.9750   22.8870  117.7800 O.3     1  UNL1       -0.3769
     81 O          12.1170   28.3120  116.3160 O.3     1  UNL1       -0.4563
@<TRIPOS>BOND
     1    36    64    1
     2    41    63    1
     3    35    63    1
     4    17    64    1
     5    63    16    1
     6    63    76    1
     7    64    42    1
     8    64    50    1
     9     4    49    1
    10    18    65    1
    11     5    50    1
    12    76    48    1
    13    50    49    1
    14    50    51    1
    15    49    48    1
    16    49    77    1
    17     1    77    1
    18    65    37    1
    19    65    43    1
    20    65    52    1
    21     7    52    1
    22    48     3    1
    23    48    47    1
    24    52    51    1
    25    52    53    1
    26    51    78    1
    27    51     6    1
    28    40    62    1
    29     2    46    1
    30    78    47    1
    31    47    46    1
    32    47    75    1
    33    27    53    1
    34    46    62    1
    35    46    45    1
    36    53    54    2
    37    62    34    1
    38    62    15    1
    39    26    75    1
    40    45    74    2
    41    45    81    1
    42    54    28    1
    43    54    55    1
    44    44    66    1
    45    39    67    1
    46     8    55    1
    47    81    61    1
    48    55    79    1
    49    55    56    1
    50    66    38    1
    51    66    79    1
    52    66    19    1
    53    29    67    1
    54    67    20    1
    55    67    80    1
    56     9    56    1
    57    13    60    1
    58    56    80    1
    59    56    57    1
    60    33    60    1
    61    61    14    1
    62    61    60    1
    63    61    68    1
    64    21    69    1
    65    60    59    1
    66    69    68   ar
    67    69    70   ar
    68    68    73   ar
    69    10    57    1
    70    57    30    1
    71    57    58    1
    72    31    58    1
    73    22    70    1
    74    59    58    1
    75    59    32    1
    76    59    12    1
    77    70    71   ar
    78    58    11    1
    79    73    25    1
    80    73    72   ar
    81    71    72   ar
    82    71    23    1
    83    72    24    1
