@<TRIPOS>MOLECULE
147.46432
 81 83 0 0 0
SMALL
GASTEIGER

@<TRIPOS>ATOM
      1 H          11.4190   30.0560  109.9800 H       1  UNL1        0.2099
      2 H          14.3280   26.7640  113.8810 H       1  UNL1        0.0465
      3 H          12.3050   27.0120  111.2290 H       1  UNL1        0.0676
      4 H          13.1980   28.7920  109.6380 H       1  UNL1        0.0624
      5 H          13.4440   31.0600  110.6330 H       1  UNL1        0.0349
      6 H          12.3170   30.6720  112.7640 H       1  UNL1        0.0606
      7 H          15.2300   31.2690  113.4330 H       1  UNL1        0.0365
      8 H          13.1480   33.1470  116.9880 H       1  UNL1        0.0666
      9 H          12.2690   32.0690  118.7760 H       1  UNL1        0.0625
     10 H          14.1820   30.8580  117.6070 H       1  UNL1        0.0291
     11 H          12.3490   29.4450  119.5940 H       1  UNL1        0.0266
     12 H          14.5570   28.0120  119.8530 H       1  UNL1        0.0267
     13 H          12.1980   27.6260  118.0710 H       1  UNL1        0.0304
     14 H          14.7750   26.0310  117.9000 H       1  UNL1        0.0785
     15 H          11.5000   25.6300  113.4640 H       1  UNL1        0.0239
     16 H          13.7370   25.5410  110.1870 H       1  UNL1        0.0524
     17 H          15.8080   30.8800  111.1010 H       1  UNL1        0.0234
     18 H          14.6500   32.7490  111.5220 H       1  UNL1        0.0236
     19 H          10.4810   35.2270  116.0660 H       1  UNL1        0.0524
     20 H           9.3620   29.7280  117.2450 H       1  UNL1        0.0524
     21 H          11.0820   25.4560  117.7940 H       1  UNL1        0.0621
     22 H          10.1290   23.1970  117.6300 H       1  UNL1        0.0618
     23 H          11.5860   21.2490  117.1430 H       1  UNL1        0.0618
     24 H          14.0230   21.5800  116.8140 H       1  UNL1        0.0618
     25 H          15.0020   23.8380  116.9790 H       1  UNL1        0.0621
     26 H          11.1040   28.7640  112.4130 H       1  UNL1        0.2129
     27 H          14.5810   32.5330  115.2840 H       1  UNL1        0.0573
     28 H          11.7450   31.4620  114.8180 H       1  UNL1        0.0595
     29 H           9.8640   31.0580  116.2020 H       1  UNL1        0.0524
     30 H          13.0010   29.6990  117.0100 H       1  UNL1        0.0291
     31 H          13.8920   30.2510  119.8520 H       1  UNL1        0.0266
     32 H          14.8730   28.4570  118.1810 H       1  UNL1        0.0267
     33 H          12.8000   26.6660  119.4030 H       1  UNL1        0.0304
     34 H          12.8160   24.7530  114.2440 H       1  UNL1        0.0239
     35 H          14.3630   26.9530  109.2770 H       1  UNL1        0.0524
     36 H          15.4360   29.5940  109.9650 H       1  UNL1        0.0234
     37 H          14.6620   33.7080  112.9870 H       1  UNL1        0.0236
     38 H          12.1360   35.1840  116.7030 H       1  UNL1        0.0524
     39 H          10.9130   29.6180  116.4050 H       1  UNL1        0.0524
     40 H          12.9580   25.1980  112.5520 H       1  UNL1        0.0239
     41 H          15.4750   25.8940  110.1590 H       1  UNL1        0.0524
     42 H          15.6690   29.2300  111.6870 H       1  UNL1        0.0234
     43 H          13.1190   33.1920  112.2900 H       1  UNL1        0.0236
     44 H          11.7830   34.5800  115.0510 H       1  UNL1        0.0524
     45 C          12.8830   27.0440  115.4060 C.2     1  UNL1        0.3158
     46 C          13.2360   26.8750  113.9380 C.3     1  UNL1        0.1098
     47 C          12.8260   28.0820  113.0510 C.3     1  UNL1        0.2096
     48 C          13.0780   27.7310  111.5360 C.3     1  UNL1        0.1386
     49 C          12.9180   28.9960  110.6760 C.3     1  UNL1        0.0913
     50 C          13.7420   30.1760  111.2110 C.3     1  UNL1        0.0117
     51 C          13.3830   30.4230  112.6990 C.3     1  UNL1        0.0730
     52 C          14.1870   31.5990  113.3390 C.3     1  UNL1        0.0011
     53 C          13.7810   32.0340  114.7360 C.2     1  UNL1       -0.0802
     54 C          12.5770   31.9360  115.3280 C.2     1  UNL1       -0.0568
     55 C          12.2900   32.5240  116.6950 C.3     1  UNL1        0.1025
     56 C          12.1200   31.4900  117.8540 C.3     1  UNL1        0.0879
     57 C          13.2070   30.4030  117.8230 C.3     1  UNL1       -0.0239
     58 C          13.3290   29.6330  119.1420 C.3     1  UNL1       -0.0505
     59 C          14.0720   28.3140  118.9160 C.3     1  UNL1       -0.0493
     60 C          13.1090   27.1940  118.4920 C.3     1  UNL1       -0.0114
     61 C          13.7610   26.2030  117.5120 C.3     1  UNL1        0.1280
     62 C          12.5900   25.5440  113.5210 C.3     1  UNL1       -0.0472
     63 C          14.4790   26.3450  110.1770 C.3     1  UNL1        0.0371
     64 C          15.2440   29.9510  110.9820 C.3     1  UNL1       -0.0576
     65 C          14.1510   32.8780  112.4850 C.3     1  UNL1       -0.0566
     66 C          11.4120   34.6540  116.0770 C.3     1  UNL1        0.0373
     67 C          10.2270   30.3030  116.9040 C.3     1  UNL1        0.0369
     68 C          13.1250   24.8210  117.4320 C.ar    1  UNL1       -0.0073
     69 C          11.7480   24.6160  117.6020 C.ar    1  UNL1       -0.0551
     70 C          11.1990   23.3360  117.5000 C.ar    1  UNL1       -0.0614
     71 C          12.0170   22.2430  117.2230 C.ar    1  UNL1       -0.0617
     72 C          13.3840   22.4300  117.0390 C.ar    1  UNL1       -0.0614
     73 C          13.9340   23.7100  117.1380 C.ar    1  UNL1       -0.0551
     74 O          11.7530   27.2250  115.8370 O.2     1  UNL1       -0.2503
     75 O          11.4390   28.3680  113.2410 O.3     1  UNL1       -0.3619
     76 O          14.3750   27.1400  111.3510 O.3     1  UNL1       -0.3718
     77 O          11.5270   29.3620  110.6580 O.3     1  UNL1       -0.3887
     78 O          13.6200   29.2180  113.4560 O.3     1  UNL1       -0.3415
     79 O          11.1340   33.3690  116.6150 O.3     1  UNL1       -0.3732
     80 O          10.8150   30.9190  118.0370 O.3     1  UNL1       -0.3769
     81 O          13.9710   26.7270  116.1760 O.3     1  UNL1       -0.4563
@<TRIPOS>BOND
     1    35    63    1
     2     4    49    1
     3    36    64    1
     4     1    77    1
     5    41    63    1
     6    63    16    1
     7    63    76    1
     8     5    50    1
     9    77    49    1
    10    49    50    1
    11    49    48    1
    12    64    17    1
    13    64    50    1
    14    64    42    1
    15    50    51    1
    16     3    48    1
    17    76    48    1
    18    18    65    1
    19    48    47    1
    20    43    65    1
    21    26    75    1
    22    65    37    1
    23    65    52    1
    24    40    62    1
    25    51     6    1
    26    51    52    1
    27    51    78    1
    28    47    75    1
    29    47    78    1
    30    47    46    1
    31    52     7    1
    32    52    53    1
    33    15    62    1
    34    62    46    1
    35    62    34    1
    36     2    46    1
    37    46    45    1
    38    53    27    1
    39    53    54    2
    40    28    54    1
    41    44    66    1
    42    54    55    1
    43    45    74    2
    44    45    81    1
    45    19    66    1
    46    66    79    1
    47    66    38    1
    48    81    61    1
    49    29    67    1
    50    39    67    1
    51    79    55    1
    52    55     8    1
    53    55    56    1
    54    24    72    1
    55    67    20    1
    56    67    80    1
    57    25    73    1
    58    30    57    1
    59    72    73   ar
    60    72    71   ar
    61    73    68   ar
    62    23    71    1
    63    71    70   ar
    64    68    61    1
    65    68    69   ar
    66    70    69   ar
    67    70    22    1
    68    61    14    1
    69    61    60    1
    70    69    21    1
    71    10    57    1
    72    57    56    1
    73    57    58    1
    74    56    80    1
    75    56     9    1
    76    13    60    1
    77    32    59    1
    78    60    59    1
    79    60    33    1
    80    59    58    1
    81    59    12    1
    82    58    11    1
    83    58    31    1
