@<TRIPOS>MOLECULE
142.65723
 81 83 0 0 0
SMALL
GASTEIGER

@<TRIPOS>ATOM
      1 H          18.6470   28.8600  114.0820 H       1  UNL1        0.2099
      2 H          13.4810   28.3770  115.8350 H       1  UNL1        0.0465
      3 H          15.2810   29.6340  114.1300 H       1  UNL1        0.0676
      4 H          17.1960   29.2610  112.4780 H       1  UNL1        0.0624
      5 H          18.3440   26.9890  112.7100 H       1  UNL1        0.0349
      6 H          17.2510   26.1750  114.6420 H       1  UNL1        0.0606
      7 H          18.0330   24.4370  113.1890 H       1  UNL1        0.0365
      8 H          13.8420   24.5680  110.1630 H       1  UNL1        0.0666
      9 H          13.5770   21.6260  110.1930 H       1  UNL1        0.0625
     10 H          12.1070   23.4650  109.0170 H       1  UNL1        0.0291
     11 H          10.4920   23.1140  111.5940 H       1  UNL1        0.0266
     12 H          11.6580   25.7180  110.4680 H       1  UNL1        0.0267
     13 H           9.9250   25.0830  112.9000 H       1  UNL1        0.0304
     14 H          11.0440   27.7730  111.9370 H       1  UNL1        0.0785
     15 H          13.2160   25.3990  115.2480 H       1  UNL1        0.0239
     16 H          14.0870   30.6460  112.4500 H       1  UNL1        0.0524
     17 H          17.3120   26.1140  110.7740 H       1  UNL1        0.0234
     18 H          17.1340   23.8980  115.4060 H       1  UNL1        0.0236
     19 H          15.7670   23.1910  107.5900 H       1  UNL1        0.0524
     20 H          12.2360   20.7630  113.3140 H       1  UNL1        0.0524
     21 H           9.5980   26.2660  115.1280 H       1  UNL1        0.0621
     22 H           7.6990   27.2660  116.3490 H       1  UNL1        0.0618
     23 H           6.5630   29.2820  115.4550 H       1  UNL1        0.0618
     24 H           7.3360   30.3000  113.3300 H       1  UNL1        0.0618
     25 H           9.2340   29.3170  112.0970 H       1  UNL1        0.0621
     26 H          16.6200   28.1300  115.6000 H       1  UNL1        0.2129
     27 H          16.9900   23.7040  111.2810 H       1  UNL1        0.0573
     28 H          14.3150   24.3450  112.6120 H       1  UNL1        0.0595
     29 H          11.5520   20.6860  111.6790 H       1  UNL1        0.0524
     30 H          11.3800   22.0050  109.6390 H       1  UNL1        0.0291
     31 H           9.9770   23.9050  110.1190 H       1  UNL1        0.0266
     32 H          12.2080   24.9190  111.9460 H       1  UNL1        0.0267
     33 H           9.3760   25.9520  111.4660 H       1  UNL1        0.0304
     34 H          12.1640   26.3740  116.2780 H       1  UNL1        0.0239
     35 H          15.4840   30.2420  111.4030 H       1  UNL1        0.0524
     36 H          17.0400   27.8380  110.6740 H       1  UNL1        0.0234
     37 H          16.8120   22.5760  114.2790 H       1  UNL1        0.0236
     38 H          14.0750   22.8090  107.9430 H       1  UNL1        0.0524
     39 H          13.2500   20.1910  111.9750 H       1  UNL1        0.0524
     40 H          13.8560   26.1350  116.7270 H       1  UNL1        0.0239
     41 H          13.8420   29.7860  110.9160 H       1  UNL1        0.0524
     42 H          15.7160   26.7770  111.1740 H       1  UNL1        0.0234
     43 H          15.5070   23.6780  114.7480 H       1  UNL1        0.0236
     44 H          14.6670   24.5010  108.0600 H       1  UNL1        0.0524
     45 C          12.5110   27.9190  114.0630 C.2     1  UNL1        0.3158
     46 C          13.5600   27.5630  115.0970 C.3     1  UNL1        0.1098
     47 C          15.0270   27.5340  114.5980 C.3     1  UNL1        0.2096
     48 C          15.4220   28.6780  113.6070 C.3     1  UNL1        0.1386
     49 C          16.9160   28.5160  113.2310 C.3     1  UNL1        0.0913
     50 C          17.2510   27.0980  112.7130 C.3     1  UNL1        0.0117
     51 C          16.6950   26.0380  113.7040 C.3     1  UNL1        0.0730
     52 C          16.9480   24.5400  113.3330 C.3     1  UNL1        0.0011
     53 C          16.3060   24.0320  112.0610 C.2     1  UNL1       -0.0802
     54 C          14.9840   24.0090  111.8220 C.2     1  UNL1       -0.0568
     55 C          14.2890   23.6370  110.5320 C.3     1  UNL1        0.1025
     56 C          13.1880   22.5310  110.6780 C.3     1  UNL1        0.0879
     57 C          11.8820   22.9320  109.9470 C.3     1  UNL1       -0.0239
     58 C          10.8500   23.7300  110.7610 C.3     1  UNL1       -0.0505
     59 C          11.3440   25.0750  111.2980 C.3     1  UNL1       -0.0493
     60 C          10.2470   25.7730  112.1090 C.3     1  UNL1       -0.0114
     61 C          10.7130   27.1000  112.7400 C.3     1  UNL1        0.1280
     62 C          13.1810   26.2930  115.8790 C.3     1  UNL1       -0.0472
     63 C          14.5130   29.9010  111.7710 C.3     1  UNL1        0.0371
     64 C          16.7930   26.9460  111.2600 C.3     1  UNL1       -0.0576
     65 C          16.5730   23.6220  114.5070 C.3     1  UNL1       -0.0566
     66 C          14.9150   23.4490  108.2260 C.3     1  UNL1        0.0373
     67 C          12.4590   20.8940  112.2520 C.3     1  UNL1        0.0369
     68 C           9.5520   27.7110  113.5150 C.ar    1  UNL1       -0.0073
     69 C           9.1060   27.1470  114.7210 C.ar    1  UNL1       -0.0551
     70 C           8.0340   27.7100  115.4150 C.ar    1  UNL1       -0.0614
     71 C           7.3950   28.8420  114.9120 C.ar    1  UNL1       -0.0617
     72 C           7.8290   29.4130  113.7180 C.ar    1  UNL1       -0.0614
     73 C           8.9010   28.8510  113.0220 C.ar    1  UNL1       -0.0551
     74 O          12.2650   29.0790  113.7430 O.2     1  UNL1       -0.2503
     75 O          15.7920   27.6570  115.8210 O.3     1  UNL1       -0.3619
     76 O          14.6290   28.6370  112.4140 O.3     1  UNL1       -0.3718
     77 O          17.7230   28.7950  114.3890 O.3     1  UNL1       -0.3887
     78 O          15.3080   26.2570  114.0040 O.3     1  UNL1       -0.3415
     79 O          15.2870   23.2220  109.5760 O.3     1  UNL1       -0.3732
     80 O          12.8950   22.2320  112.0520 O.3     1  UNL1       -0.3769
     81 O          11.8290   26.8320  113.6110 O.3     1  UNL1       -0.4563
@<TRIPOS>BOND
     1    19    66    1
     2    38    66    1
     3    44    66    1
     4    66    79    1
     5    10    57    1
     6    79    55    1
     7    30    57    1
     8    57    56    1
     9    57    58    1
    10    31    58    1
    11     8    55    1
    12     9    56    1
    13    12    59    1
    14    55    56    1
    15    55    54    1
    16    36    64    1
    17    56    80    1
    18    58    59    1
    19    58    11    1
    20    17    64    1
    21    41    63    1
    22    42    64    1
    23    64    50    1
    24    27    53    1
    25    59    32    1
    26    59    60    1
    27    35    63    1
    28    33    60    1
    29    29    67    1
    30    63    76    1
    31    63    16    1
    32    54    53    2
    33    54    28    1
    34    14    61    1
    35    39    67    1
    36    80    67    1
    37    53    52    1
    38    25    73    1
    39    60    61    1
    40    60    13    1
    41    67    20    1
    42    76    48    1
    43     4    49    1
    44     5    50    1
    45    50    49    1
    46    50    51    1
    47    61    68    1
    48    61    81    1
    49    73    68   ar
    50    73    72   ar
    51     7    52    1
    52    49    48    1
    53    49    77    1
    54    24    72    1
    55    52    51    1
    56    52    65    1
    57    68    69   ar
    58    48     3    1
    59    48    47    1
    60    81    45    1
    61    51    78    1
    62    51     6    1
    63    72    71   ar
    64    74    45    2
    65    78    47    1
    66    45    46    1
    67     1    77    1
    68    37    65    1
    69    65    43    1
    70    65    18    1
    71    47    46    1
    72    47    75    1
    73    69    21    1
    74    69    70   ar
    75    71    70   ar
    76    71    23    1
    77    46     2    1
    78    46    62    1
    79    15    62    1
    80    70    22    1
    81    26    75    1
    82    62    34    1
    83    62    40    1
