@<TRIPOS>MOLECULE
127.09615
 81 83 0 0 0
SMALL
GASTEIGER

@<TRIPOS>ATOM
      1 H          18.3140   25.3810  114.6570 H       1  UNL1        0.2099
      2 H          13.0010   27.6830  113.6350 H       1  UNL1        0.0465
      3 H          16.2700   28.0640  114.1150 H       1  UNL1        0.0676
      4 H          17.5520   26.2890  112.7790 H       1  UNL1        0.0624
      5 H          17.0010   23.9220  113.3960 H       1  UNL1        0.0349
      6 H          15.5950   24.3600  115.3470 H       1  UNL1        0.0606
      7 H          13.7610   23.0690  113.2740 H       1  UNL1        0.0365
      8 H          11.5720   22.5910  117.2760 H       1  UNL1        0.0666
      9 H          12.2310   21.9510  119.5780 H       1  UNL1        0.0625
     10 H          14.4100   23.7180  118.3110 H       1  UNL1        0.0291
     11 H          11.6810   24.4490  119.5110 H       1  UNL1        0.0266
     12 H          13.9500   26.2530  118.5110 H       1  UNL1        0.0267
     13 H          12.6000   28.0740  119.4730 H       1  UNL1        0.0304
     14 H          10.9280   26.4700  117.4690 H       1  UNL1        0.0785
     15 H          14.3590   29.2660  115.8790 H       1  UNL1        0.0239
     16 H          16.1800   29.3480  112.2010 H       1  UNL1        0.0524
     17 H          15.4470   23.5430  111.5810 H       1  UNL1        0.0234
     18 H          15.9200   21.8950  113.1350 H       1  UNL1        0.0236
     19 H          10.4210   19.3520  116.5290 H       1  UNL1        0.0524
     20 H          15.0140   20.0650  120.4960 H       1  UNL1        0.0524
     21 H          11.9590   30.0830  118.0870 H       1  UNL1        0.0621
     22 H          10.3270   31.9360  118.1480 H       1  UNL1        0.0618
     23 H           7.9040   31.4740  117.8820 H       1  UNL1        0.0618
     24 H           7.1160   29.1460  117.5490 H       1  UNL1        0.0618
     25 H           8.7300   27.2830  117.4840 H       1  UNL1        0.0621
     26 H          16.1140   26.4680  115.9580 H       1  UNL1        0.2129
     27 H          12.5630   23.5940  115.3190 H       1  UNL1        0.0573
     28 H          14.1890   21.2040  116.3740 H       1  UNL1        0.0595
     29 H          14.2910   21.5720  121.0940 H       1  UNL1        0.0524
     30 H          14.0350   23.6250  120.0080 H       1  UNL1        0.0291
     31 H          12.1660   24.6620  117.8250 H       1  UNL1        0.0266
     32 H          13.5470   25.9980  120.2020 H       1  UNL1        0.0267
     33 H          11.2980   26.9620  119.8860 H       1  UNL1        0.0304
     34 H          12.9000   29.7780  115.0230 H       1  UNL1        0.0239
     35 H          17.0090   27.9620  111.4220 H       1  UNL1        0.0524
     36 H          16.4070   24.9480  111.1380 H       1  UNL1        0.0234
     37 H          14.7820   20.8880  114.0090 H       1  UNL1        0.0236
     38 H          10.0120   21.0780  116.5360 H       1  UNL1        0.0524
     39 H          13.2510   20.1780  120.6550 H       1  UNL1        0.0524
     40 H          14.4180   29.5980  114.1420 H       1  UNL1        0.0239
     41 H          15.5260   28.6290  110.7160 H       1  UNL1        0.0524
     42 H          14.7440   25.1490  111.7190 H       1  UNL1        0.0234
     43 H          16.0300   21.7900  114.8950 H       1  UNL1        0.0236
     44 H          11.2750   20.4480  115.4280 H       1  UNL1        0.0524
     45 C          12.3430   27.2250  115.5610 C.2     1  UNL1        0.3158
     46 C          13.4500   27.7060  114.6380 C.3     1  UNL1        0.1098
     47 C          14.6530   26.7350  114.6850 C.3     1  UNL1        0.2096
     48 C          15.7790   27.1780  113.6880 C.3     1  UNL1        0.1386
     49 C          16.8270   26.0510  113.5650 C.3     1  UNL1        0.0913
     50 C          16.2040   24.6690  113.2890 C.3     1  UNL1        0.0117
     51 C          15.1230   24.3800  114.3550 C.3     1  UNL1        0.0730
     52 C          14.3690   23.0250  114.1870 C.3     1  UNL1        0.0011
     53 C          13.3710   22.8600  115.3270 C.2     1  UNL1       -0.0802
     54 C          13.3980   21.9470  116.3150 C.2     1  UNL1       -0.0568
     55 C          12.3830   21.8700  117.4290 C.3     1  UNL1        0.1025
     56 C          13.0170   22.1290  118.8300 C.3     1  UNL1        0.0879
     57 C          13.5820   23.5510  119.0110 C.3     1  UNL1       -0.0239
     58 C          12.5350   24.6550  118.8550 C.3     1  UNL1       -0.0505
     59 C          13.1210   26.0280  119.1910 C.3     1  UNL1       -0.0493
     60 C          12.0860   27.1600  119.1470 C.3     1  UNL1       -0.0114
     61 C          11.4540   27.3860  117.7620 C.3     1  UNL1        0.1280
     62 C          13.8060   29.1660  114.9390 C.3     1  UNL1       -0.0472
     63 C          16.0400   28.4100  111.6560 C.3     1  UNL1        0.0371
     64 C          15.6670   24.5790  111.8550 C.3     1  UNL1       -0.0576
     65 C          15.3300   21.8360  114.0540 C.3     1  UNL1       -0.0566
     66 C          10.8300   20.3610  116.4240 C.3     1  UNL1        0.0373
     67 C          14.1570   20.7370  120.4010 C.3     1  UNL1        0.0369
     68 C          10.4670   28.5410  117.7950 C.ar    1  UNL1       -0.0073
     69 C          10.8990   29.8650  117.9760 C.ar    1  UNL1       -0.0551
     70 C           9.9800   30.9150  118.0090 C.ar    1  UNL1       -0.0614
     71 C           8.6190   30.6570  117.8590 C.ar    1  UNL1       -0.0617
     72 C           8.1770   29.3490  117.6740 C.ar    1  UNL1       -0.0614
     73 C           9.0940   28.2970  117.6410 C.ar    1  UNL1       -0.0551
     74 O          11.4100   26.5190  115.1940 O.2     1  UNL1       -0.2503
     75 O          15.1700   26.7180  116.0200 O.3     1  UNL1       -0.3619
     76 O          15.2290   27.5150  112.4050 O.3     1  UNL1       -0.3718
     77 O          17.5660   25.9920  114.7990 O.3     1  UNL1       -0.3887
     78 O          14.1530   25.4380  114.3330 O.3     1  UNL1       -0.3415
     79 O          11.8050   20.5500  117.4410 O.3     1  UNL1       -0.3732
     80 O          14.0940   21.1930  119.0580 O.3     1  UNL1       -0.3769
     81 O          12.4990   27.7000  116.8270 O.3     1  UNL1       -0.4563
@<TRIPOS>BOND
     1    41    63    1
     2    36    64    1
     3    35    63    1
     4    17    64    1
     5    63    16    1
     6    63    76    1
     7    42    64    1
     8    64    50    1
     9    76    48    1
    10     4    49    1
    11    18    65    1
    12     7    52    1
    13    50     5    1
    14    50    49    1
    15    50    51    1
    16    49    48    1
    17    49    77    1
    18     2    46    1
    19    48     3    1
    20    48    47    1
    21    37    65    1
    22    65    52    1
    23    65    43    1
    24    40    62    1
    25    52    51    1
    26    52    53    1
    27    78    51    1
    28    78    47    1
    29    51     6    1
    30    46    47    1
    31    46    62    1
    32    46    45    1
    33     1    77    1
    34    47    75    1
    35    62    34    1
    36    62    15    1
    37    74    45    2
    38    27    53    1
    39    53    54    2
    40    44    66    1
    41    45    81    1
    42    26    75    1
    43    54    28    1
    44    54    55    1
    45    66    19    1
    46    66    38    1
    47    66    79    1
    48    81    61    1
    49     8    55    1
    50    55    79    1
    51    55    56    1
    52    14    61    1
    53    25    73    1
    54    24    72    1
    55    73    72   ar
    56    73    68   ar
    57    72    71   ar
    58    61    68    1
    59    61    60    1
    60    68    69   ar
    61    31    58    1
    62    71    23    1
    63    71    70   ar
    64    69    70   ar
    65    69    21    1
    66    70    22    1
    67    10    57    1
    68    12    59    1
    69    56    57    1
    70    56    80    1
    71    56     9    1
    72    58    57    1
    73    58    59    1
    74    58    11    1
    75    57    30    1
    76    80    67    1
    77    60    59    1
    78    60    13    1
    79    60    33    1
    80    59    32    1
    81    67    20    1
    82    67    39    1
    83    67    29    1
