@<TRIPOS>MOLECULE
30.55489
 102 102 0 0 0
SMALL
GASTEIGER

@<TRIPOS>ATOM
      1  H01        5.3530   45.8440   20.3510 H     404  FLI404      0.0614
      2  H02        5.4540   43.2920   22.0650 H     404  FLI404      0.0573
      3  H03        6.1110   47.8120   21.5760 H     404  FLI404      0.0618
      4  H04        6.4830   45.2210   23.1900 H     404  FLI404      0.0617
      5  H05        7.3300   47.2060   24.3770 H     404  FLI404      0.0618
      6  H06        6.7180   49.7990   22.8390 H     404  FLI404      0.0618
      7  H07        8.0180   49.2190   25.6070 H     404  FLI404      0.0618
      8  H08        7.1340   51.7850   24.1720 H     404  FLI404      0.0618
      9  H09        8.5810   51.1970   26.8470 H     404  FLI404      0.0618
     10  H10        9.3590   55.1090   28.5290 H     404  FLI404      0.2102
     11  H11        2.6610   41.0720   23.4760 H     404  FLI404      0.0439
     12  H12        0.9040   43.1930   24.8280 H     404  FLI404      0.0602
     13  H13        3.0950   44.1580   24.0140 H     404  FLI404      0.0315
     14  H14        2.0760   44.8600   26.2590 H     404  FLI404      0.0595
     15  H15        4.0400   46.0600   25.3410 H     404  FLI404      0.0315
     16  H16        3.2600   46.5170   27.7720 H     404  FLI404      0.0595
     17  H17        4.8990   48.0160   26.6620 H     404  FLI404      0.0315
     18  H18        4.4230   48.2720   29.1930 H     404  FLI404      0.0595
     19  H19        5.7100   49.9810   27.9380 H     404  FLI404      0.0315
     20  H20        5.5640   50.1440   30.5300 H     404  FLI404      0.0595
     21  H21        8.1480   51.1850   29.2580 H     404  FLI404      0.0315
     22  H22        5.9270   52.1170   28.2390 H     404  FLI404      0.0595
     23  H23        7.6180   54.1000   29.8640 H     404  FLI404      0.0318
     24  H24        9.0880   52.9420   28.2510 H     404  FLI404      0.0641
     25  H25       -0.3780   41.4640   23.3620 H     404  FLI404      0.0274
     26  H26        4.9910   42.2560   19.9190 H     404  FLI404      0.0343
     27  H27        2.6260   44.1380   20.4620 H     404  FLI404      0.0734
     28  H28        2.7030   41.4580   18.9610 H     404  FLI404      0.0265
     29  H29        6.5880   53.7180   24.8030 H     404  FLI404      0.0275
     30  H30        1.4120   39.2210   22.2840 H     404  FLI404      0.0265
     31  H31       -1.6050   39.7070   22.1000 H     404  FLI404      0.0265
     32  H32        0.1600   37.4540   21.0050 H     404  FLI404      0.0265
     33  H33       -2.0820   36.6340   21.7800 H     404  FLI404      0.0263
     34  H34       -4.0760   37.2840   20.4150 H     404  FLI404      0.0230
     35  H35        2.4750   41.0290   25.7990 H     404  FLI404      0.2098
     36  H36        2.4700   42.7970   27.2200 H     404  FLI404      0.2098
     37  H37        4.1660   44.4180   28.4170 H     404  FLI404      0.2098
     38  H38        5.6560   46.2720   29.5840 H     404  FLI404      0.2098
     39  H39        7.0180   48.2700   30.6790 H     404  FLI404      0.2098
     40  H40        4.7670   53.4710   29.6440 H     404  FLI404      0.2098
     41  H41       -3.1430   38.5880   19.6640 H     404  FLI404      0.0230
     42  H42        3.9460   42.8610   24.8790 H     404  FLI404      0.0315
     43  H43        5.1270   44.8350   26.0260 H     404  FLI404      0.0315
     44  H44        6.2210   46.9210   27.1150 H     404  FLI404      0.0315
     45  H45        7.2020   49.0530   28.1790 H     404  FLI404      0.0315
     46  H46        7.5390   51.6890   30.8160 H     404  FLI404      0.0315
     47  H47        6.5040   54.5540   28.6280 H     404  FLI404      0.0318
     48  H48        0.4350   40.2380   24.3310 H     404  FLI404      0.0274
     49  H49        4.7250   43.8060   19.1190 H     404  FLI404      0.0343
     50  H50        2.4700   43.0530   18.2050 H     404  FLI404      0.0265
     51  H51        7.7200   54.9390   25.3750 H     404  FLI404      0.0275
     52  H52        0.6330   40.4460   21.2820 H     404  FLI404      0.0265
     53  H53       -0.8390   38.4490   23.0750 H     404  FLI404      0.0265
     54  H54       -0.6250   38.6840   20.0220 H     404  FLI404      0.0265
     55  H55       -1.8110   36.4810   20.0470 H     404  FLI404      0.0263
     56  H56       -3.5120   38.6360   21.4000 H     404  FLI404      0.0230
     57  H57        1.2560   42.3880   19.3190 H     404  FLI404      0.0265
     58  H58        6.2410   54.5780   26.2890 H     404  FLI404      0.0275
     59  C1         1.8070   42.6430   22.2830 C.2   404  FLI404      0.3130
     60  O1         1.0180   43.5580   22.0930 O.2   404  FLI404     -0.2504
     61  C2         1.7760   41.7230   23.4850 C.3   404  FLI404      0.0823
     62  C3         1.8070   42.5730   24.7710 C.3   404  FLI404      0.0705
     63  C4         3.0450   43.4880   24.8790 C.3   404  FLI404      0.0001
     64  C5         3.0330   44.3330   26.1660 C.3   404  FLI404      0.0600
     65  C6         4.1760   45.3620   26.1760 C.3   404  FLI404     -0.0006
     66  C7         4.2510   46.1340   27.5040 C.3   404  FLI404      0.0599
     67  C8         5.2410   47.3070   27.4250 C.3   404  FLI404     -0.0006
     68  C9         5.4070   48.0240   28.7770 C.3   404  FLI404      0.0599
     69  C10        6.2340   49.3120   28.6280 C.3   404  FLI404     -0.0006
     70  C11        6.4990   50.0120   29.9750 C.3   404  FLI404      0.0599
     71  C12        7.2230   51.3570   29.8180 C.3   404  FLI404     -0.0006
     72  C13        6.3800   52.4610   29.1720 C.3   404  FLI404      0.0602
     73  C14        7.1870   53.7440   28.9180 C.3   404  FLI404      0.0032
     74  C15        8.3060   53.6090   27.8710 C.3   404  FLI404      0.0786
     75  C16        7.8100   53.1210   26.5190 C.2   404  FLI404     -0.0445
     76  C17        8.0270   51.8390   26.1600 C.2   404  FLI404     -0.0604
     77  C18        7.5620   51.1770   24.9630 C.2   404  FLI404     -0.0617
     78  C19        7.6070   49.8440   24.8170 C.2   404  FLI404     -0.0618
     79  C1P        0.5200   40.8340   23.4150 C.3   404  FLI404     -0.0377
     80  C20        7.0780   49.1710   23.6520 C.2   404  FLI404     -0.0618
     81  C21        6.9860   47.8360   23.5600 C.2   404  FLI404     -0.0618
     82  C22        6.4080   47.1790   22.4100 C.2   404  FLI404     -0.0618
     83  C23        6.2020   45.8550   22.3520 C.2   404  FLI404     -0.0621
     84  C24        5.5800   45.2200   21.2140 C.2   404  FLI404     -0.0656
     85  C25        5.2470   43.9210   21.2010 C.2   404  FLI404     -0.0805
     86  C26        4.5470   43.2500   20.0480 C.3   404  FLI404      0.0026
     87  C27        3.0360   43.1330   20.3040 C.3   404  FLI404      0.1037
     88  C28        2.3300   42.4750   19.1240 C.3   404  FLI404     -0.0274
     89  C29        7.0510   54.1360   25.7000 C.3   404  FLI404     -0.0411
     90  C2P        0.5380   39.8790   22.2150 C.3   404  FLI404     -0.0522
     91  O30        2.8400   42.3020   21.4670 O.3   404  FLI404     -0.4611
     92  C3P       -0.7390   39.0370   22.1540 C.3   404  FLI404     -0.0530
     93  C4P       -0.7250   38.0990   20.9450 C.3   404  FLI404     -0.0533
     94  C5P       -1.9650   37.2080   20.8540 C.3   404  FLI404     -0.0559
     95  C6P       -3.2440   37.9790   20.5680 C.3   404  FLI404     -0.0653
     96  OA3        1.7870   41.7100   25.9210 O.3   404  FLI404     -0.3909
     97  OA5        3.1700   43.4820   27.3080 O.3   404  FLI404     -0.3916
     98  OA7        4.6720   45.2540   28.5520 O.3   404  FLI404     -0.3916
     99  OA9        6.0660   47.1600   29.7080 O.3   404  FLI404     -0.3916
    100  OB1        7.3630   49.1880   30.7680 O.3   404  FLI404     -0.3916
    101  OB3        5.3010   52.7700   30.0580 O.3   404  FLI404     -0.3916
    102  OB5        8.9260   54.8800   27.6890 O.3   404  FLI404     -0.3874
@<TRIPOS>BOND
     1     1    84    1
     2     2    85    1
     3     3    82    1
     4     4    83    1
     5     5    81    1
     6     6    80    1
     7     7    78    1
     8     8    77    1
     9     9    76    1
    10    10   102    1
    11    11    61    1
    12    12    62    1
    13    13    63    1
    14    14    64    1
    15    15    65    1
    16    16    66    1
    17    17    67    1
    18    18    68    1
    19    19    69    1
    20    20    70    1
    21    21    71    1
    22    22    72    1
    23    23    73    1
    24    24    74    1
    25    25    79    1
    26    26    86    1
    27    27    87    1
    28    28    88    1
    29    29    89    1
    30    30    90    1
    31    31    92    1
    32    32    93    1
    33    33    94    1
    34    34    95    1
    35    35    96    1
    36    36    97    1
    37    37    98    1
    38    38    99    1
    39    39   100    1
    40    40   101    1
    41    41    95    1
    42    42    63    1
    43    43    65    1
    44    44    67    1
    45    45    69    1
    46    46    71    1
    47    47    73    1
    48    48    79    1
    49    49    86    1
    50    50    88    1
    51    51    89    1
    52    52    90    1
    53    53    92    1
    54    54    93    1
    55    55    94    1
    56    56    95    1
    57    57    88    1
    58    58    89    1
    59    59    60    2
    60    59    61    1
    61    59    91    1
    62    61    62    1
    63    61    79    1
    64    62    63    1
    65    62    96    1
    66    63    64    1
    67    64    65    1
    68    64    97    1
    69    65    66    1
    70    66    67    1
    71    66    98    1
    72    67    68    1
    73    68    69    1
    74    68    99    1
    75    69    70    1
    76    70    71    1
    77    70   100    1
    78    71    72    1
    79    72    73    1
    80    72   101    1
    81    73    74    1
    82    74    75    1
    83    74   102    1
    84    75    76    2
    85    75    89    1
    86    76    77    1
    87    77    78    2
    88    78    80    1
    89    79    90    1
    90    80    81    2
    91    81    82    1
    92    82    83    2
    93    83    84    1
    94    84    85    2
    95    85    86    1
    96    86    87    1
    97    87    88    1
    98    87    91    1
    99    90    92    1
   100    92    93    1
   101    93    94    1
   102    94    95    1
