@<TRIPOS>MOLECULE
-32.81638
 50 53 0 0 0
SMALL
GASTEIGER

@<TRIPOS>ATOM
      1 H           2.1100   17.4540   20.1530 H       1  UNL1        0.0780
      2 H          -0.1790   15.6820   23.6390 H       1  UNL1        0.0619
      3 H           3.0340   22.2650   20.0500 H       1  UNL1        0.0624
      4 H           4.7440   18.3110   20.2600 H       1  UNL1        0.0624
      5 H           0.1460   16.3950   21.3060 H       1  UNL1        0.0654
      6 H           0.7560   20.4410   22.6200 H       1  UNL1        0.0657
      7 H          -0.2980   19.8280   26.0390 H       1  UNL1        0.0314
      8 H           1.9770   19.0160   26.5410 H       1  UNL1        0.0284
      9 H           2.8510   20.9990   24.3750 H       1  UNL1        0.0515
     10 H           4.3180   21.3510   15.8640 H       1  UNL1        0.0294
     11 H           6.5510   19.8550   25.0530 H       1  UNL1        0.1480
     12 H          -0.0290   17.3140   25.4860 H       1  UNL1        0.0620
     13 H           4.1930   22.8800   22.1270 H       1  UNL1        0.0621
     14 H           5.8960   18.9180   22.3420 H       1  UNL1        0.0621
     15 H           5.4960   22.2960   24.0340 H       1  UNL1        0.0490
     16 H           0.6310   17.4890   19.1470 H       1  UNL1        0.0780
     17 H           0.3180   21.0160   24.9120 H       1  UNL1        0.0314
     18 H           1.8730   20.7530   26.7720 H       1  UNL1        0.0284
     19 H           3.1900   19.2410   24.4590 H       1  UNL1        0.0515
     20 H           5.2370   21.2150   17.3680 H       1  UNL1        0.0294
     21 H           6.9060   21.4400   23.4510 H       1  UNL1        0.0490
     22 H           3.9080   22.3860   17.2430 H       1  UNL1        0.0294
     23 C           0.0360   16.7260   23.4190 C.ar    1  UNL1       -0.0580
     24 C           3.6640   21.5280   20.5440 C.ar    1  UNL1       -0.0536
     25 C           4.6120   19.3110   20.6650 C.ar    1  UNL1       -0.0536
     26 C           0.2310   17.1320   22.0970 C.ar    1  UNL1       -0.0199
     27 C           0.5510   19.3990   22.8580 C.ar    1  UNL1       -0.0167
     28 C           3.8020   20.2430   20.0100 C.ar    1  UNL1       -0.0127
     29 C           3.1230   19.8890   18.7850 C.ar    1  UNL1        0.0503
     30 C           5.1240   20.9410   22.4000 C.ar    1  UNL1       -0.0319
     31 C           0.3690   19.0000   24.1890 C.ar    1  UNL1       -0.0439
     32 C           0.5100   18.4690   21.8190 C.ar    1  UNL1        0.1214
     33 C           2.0970   18.9720   18.6890 C.ar    1  UNL1        0.1823
     34 C           3.2840   20.3670   17.4590 C.ar    1  UNL1        0.0886
     35 C           0.4970   20.0060   25.3040 C.3     1  UNL1       -0.0260
     36 C           1.8580   19.9670   26.0070 C.3     1  UNL1       -0.0281
     37 C           3.0280   20.1520   25.0450 C.3     1  UNL1        0.0820
     38 C           4.2370   21.3830   16.9550 C.3     1  UNL1       -0.0185
     39 N           5.6990   20.3010   24.7160 N.3     1  UNL1       -0.1902
     40 C           0.1140   17.6510   24.4610 C.ar    1  UNL1       -0.0583
     41 C           4.3210   21.8750   21.7290 C.ar    1  UNL1       -0.0567
     42 C           5.2710   19.6590   21.8470 C.ar    1  UNL1       -0.0567
     43 C           5.8400   21.3200   23.6760 C.3     1  UNL1        0.0421
     44 C           1.3820   18.1050   19.6540 C.3     1  UNL1        0.1502
     45 N           2.4330   19.7660   16.6180 N.ar    1  UNL1       -0.0826
     46 O           4.5680   21.8730   26.3330 O.2     1  UNL1       -0.1582
     47 O           4.8040   19.4180   26.8530 O.2     1  UNL1       -0.1582
     48 O           1.6890   18.8950   17.3930 O.2     1  UNL1       -0.3553
     49 O           0.7280   18.9820   20.5720 O.3     1  UNL1       -0.4842
     50 S           4.5520   20.4900   25.9160 S.O2    1  UNL1        0.0297
@<TRIPOS>BOND
     1    10    38    1
     2    45    48   ar
     3    45    34   ar
     4    38    22    1
     5    38    20    1
     6    38    34    1
     7    48    33   ar
     8    34    29   ar
     9    33    29   ar
    10    33    44    1
    11    29    28    1
    12    16    44    1
    13    44     1    1
    14    44    49    1
    15    28    24   ar
    16    28    25   ar
    17     3    24    1
    18     4    25    1
    19    24    41   ar
    20    49    32    1
    21    25    42   ar
    22     5    26    1
    23    41    13    1
    24    41    30   ar
    25    32    26   ar
    26    32    27   ar
    27    42    14    1
    28    42    30   ar
    29    26    23   ar
    30    30    43    1
    31     6    27    1
    32    27    31   ar
    33    23     2    1
    34    23    40   ar
    35    21    43    1
    36    43    15    1
    37    43    39    1
    38    31    40   ar
    39    31    35    1
    40     9    37    1
    41    19    37    1
    42    40    12    1
    43    39    11    1
    44    39    50    1
    45    17    35    1
    46    37    50    1
    47    37    36    1
    48    35    36    1
    49    35     7    1
    50    50    46    2
    51    50    47    2
    52    36     8    1
    53    36    18    1
