@<TRIPOS>MOLECULE
-25.82965
 50 53 0 0 0
SMALL
GASTEIGER

@<TRIPOS>ATOM
      1 H           7.1320   24.2350   28.7390 H       1  UNL1        0.0780
      2 H           5.7230   23.8250   24.6220 H       1  UNL1        0.0619
      3 H          10.3030   24.4780   25.7890 H       1  UNL1        0.0624
      4 H          10.6070   21.0650   28.4120 H       1  UNL1        0.0624
      5 H           7.1290   24.1840   26.5950 H       1  UNL1        0.0654
      6 H           6.6930   20.0400   27.6650 H       1  UNL1        0.0657
      7 H           4.1850   19.3570   24.9970 H       1  UNL1        0.0314
      8 H           5.7120   17.3280   24.9040 H       1  UNL1        0.0284
      9 H           5.7280   19.6060   23.0650 H       1  UNL1        0.0515
     10 H          13.2940   25.3640   29.3230 H       1  UNL1        0.0294
     11 H           8.0060   20.8910   23.8440 H       1  UNL1        0.1480
     12 H           4.7720   21.6040   24.1330 H       1  UNL1        0.0620
     13 H          10.1570   22.9740   23.8470 H       1  UNL1        0.0621
     14 H          10.4500   19.5600   26.4740 H       1  UNL1        0.0621
     15 H          10.5180   19.2910   23.9980 H       1  UNL1        0.0490
     16 H           7.5000   23.2770   30.1560 H       1  UNL1        0.0780
     17 H           4.8430   18.8070   26.5180 H       1  UNL1        0.0314
     18 H           7.0680   18.3380   25.3520 H       1  UNL1        0.0284
     19 H           5.8300   17.8760   22.7360 H       1  UNL1        0.0515
     20 H          12.8040   25.3120   27.6210 H       1  UNL1        0.0294
     21 H          10.2750   20.6860   22.9290 H       1  UNL1        0.0490
     22 H          13.2500   23.8160   28.4670 H       1  UNL1        0.0294
     23 C           5.9260   22.9930   25.2920 C.ar    1  UNL1       -0.0580
     24 C          10.3700   23.4040   25.9400 C.ar    1  UNL1       -0.0536
     25 C          10.5480   21.4890   27.4120 C.ar    1  UNL1       -0.0536
     26 C           6.7110   23.1970   26.4310 C.ar    1  UNL1       -0.0199
     27 C           6.4640   20.8680   26.9960 C.ar    1  UNL1       -0.0167
     28 C          10.4550   22.8710   27.2300 C.ar    1  UNL1       -0.0127
     29 C          10.3600   23.7420   28.3750 C.ar    1  UNL1        0.0503
     30 C          10.3080   21.1590   25.0220 C.ar    1  UNL1       -0.0319
     31 C           5.6710   20.6500   25.8570 C.ar    1  UNL1       -0.0439
     32 C           6.9590   22.1400   27.3050 C.ar    1  UNL1        0.1214
     33 C           9.2170   23.9420   29.1240 C.ar    1  UNL1        0.1823
     34 C          11.3300   24.5860   28.9700 C.ar    1  UNL1        0.0886
     35 C           5.1210   19.2740   25.5640 C.3     1  UNL1       -0.0260
     36 C           6.1040   18.3500   24.8320 C.3     1  UNL1       -0.0281
     37 C           6.2470   18.6850   23.3460 C.3     1  UNL1        0.0820
     38 C          12.7450   24.7810   28.5760 C.3     1  UNL1       -0.0185
     39 N           8.5170   20.0080   23.8920 N.3     1  UNL1       -0.1902
     40 C           5.3980   21.7320   25.0130 C.ar    1  UNL1       -0.0583
     41 C          10.2920   22.5500   24.8400 C.ar    1  UNL1       -0.0567
     42 C          10.4650   20.6360   26.3130 C.ar    1  UNL1       -0.0567
     43 C           9.9710   20.2320   23.8790 C.3     1  UNL1        0.0421
     44 C           7.8090   23.4650   29.1210 C.3     1  UNL1        0.1502
     45 N          10.8160   25.2570   30.0070 N.ar    1  UNL1       -0.0826
     46 O           8.6480   17.6330   23.0410 O.2     1  UNL1       -0.1582
     47 O           7.9450   19.5150   21.5140 O.2     1  UNL1       -0.1582
     48 O           9.5000   24.8530   30.1020 O.2     1  UNL1       -0.3553
     49 O           7.7120   22.2090   28.4450 O.3     1  UNL1       -0.4842
     50 S           7.9430   18.8730   22.8100 S.O2    1  UNL1        0.0297
@<TRIPOS>BOND
     1    47    50    2
     2    19    37    1
     3    50    46    2
     4    50    37    1
     5    50    39    1
     6    21    43    1
     7     9    37    1
     8    37    36    1
     9    11    39    1
    10    13    41    1
    11    43    39    1
    12    43    15    1
    13    43    30    1
    14    12    40    1
    15     2    23    1
    16    36     8    1
    17    36    18    1
    18    36    35    1
    19    41    30   ar
    20    41    24   ar
    21     7    35    1
    22    40    23   ar
    23    40    31   ar
    24    30    42   ar
    25    23    26   ar
    26    35    31    1
    27    35    17    1
    28     3    24    1
    29    31    27   ar
    30    24    28   ar
    31    42    14    1
    32    42    25   ar
    33    26     5    1
    34    26    32   ar
    35    27    32   ar
    36    27     6    1
    37    28    25   ar
    38    28    29    1
    39    32    49    1
    40    25     4    1
    41    20    38    1
    42    29    34   ar
    43    29    33   ar
    44    49    44    1
    45    22    38    1
    46    38    34    1
    47    38    10    1
    48     1    44    1
    49    34    45   ar
    50    44    33    1
    51    44    16    1
    52    33    48   ar
    53    45    48   ar
