@<TRIPOS>MOLECULE
-31.98003
 50 53 0 0 0
SMALL
GASTEIGER

@<TRIPOS>ATOM
      1 H           1.6430   18.8060   19.7940 H       1  UNL1        0.0780
      2 H           1.5970   14.7720   21.8840 H       1  UNL1        0.0619
      3 H           3.7200   20.7430   19.7920 H       1  UNL1        0.0624
      4 H           1.0130   22.9740   22.3040 H       1  UNL1        0.0624
      5 H           0.6610   16.5670   20.4890 H       1  UNL1        0.0654
      6 H           0.9290   19.2970   23.7940 H       1  UNL1        0.0657
      7 H           2.8220   16.7770   25.9060 H       1  UNL1        0.0314
      8 H           2.9160   18.8800   27.0430 H       1  UNL1        0.0284
      9 H           3.4860   19.6370   24.1390 H       1  UNL1        0.0515
     10 H           0.3240   24.7150   18.2980 H       1  UNL1        0.0294
     11 H           6.6860   21.1310   24.9670 H       1  UNL1        0.1480
     12 H           2.2470   15.2070   24.2190 H       1  UNL1        0.0620
     13 H           5.4930   20.9940   21.4810 H       1  UNL1        0.0621
     14 H           2.7870   23.2380   23.9830 H       1  UNL1        0.0621
     15 H           5.1650   23.2000   24.5240 H       1  UNL1        0.0490
     16 H          -0.0920   18.5690   19.4210 H       1  UNL1        0.0780
     17 H           1.1850   17.3230   26.2460 H       1  UNL1        0.0314
     18 H           1.8370   19.6640   25.9110 H       1  UNL1        0.0284
     19 H           4.5410   18.5070   25.0260 H       1  UNL1        0.0515
     20 H           1.9890   24.3510   18.7770 H       1  UNL1        0.0294
     21 H           6.2830   22.6660   23.3110 H       1  UNL1        0.0490
     22 H           0.7540   24.6660   20.0130 H       1  UNL1        0.0294
     23 C           1.4750   15.7700   22.2990 C.ar    1  UNL1       -0.0580
     24 C           3.5050   21.2840   20.7100 C.ar    1  UNL1       -0.0536
     25 C           1.9940   22.5440   22.1110 C.ar    1  UNL1       -0.0536
     26 C           0.9510   16.7930   21.5100 C.ar    1  UNL1       -0.0199
     27 C           1.1070   18.3030   23.3910 C.ar    1  UNL1       -0.0167
     28 C           2.2430   21.8480   20.9240 C.ar    1  UNL1       -0.0127
     29 C           1.2120   21.7520   19.9160 C.ar    1  UNL1        0.0503
     30 C           4.2790   22.1540   22.8460 C.ar    1  UNL1       -0.0319
     31 C           1.6750   17.2960   24.1820 C.ar    1  UNL1       -0.0439
     32 C           0.7860   18.0670   22.0510 C.ar    1  UNL1        0.1214
     33 C           0.5550   20.5950   19.5570 C.ar    1  UNL1        0.1823
     34 C           0.6260   22.7510   19.0960 C.ar    1  UNL1        0.0886
     35 C           2.0660   17.5220   25.6230 C.3     1  UNL1       -0.0260
     36 C           2.6230   18.9030   25.9860 C.3     1  UNL1       -0.0281
     37 C           3.8160   19.3200   25.1290 C.3     1  UNL1        0.0820
     38 C           0.9380   24.1970   19.0420 C.3     1  UNL1       -0.0185
     39 N           5.7230   21.1590   24.6310 N.3     1  UNL1       -0.1902
     40 C           1.8390   16.0210   23.6220 C.ar    1  UNL1       -0.0583
     41 C           4.5140   21.4330   21.6670 C.ar    1  UNL1       -0.0567
     42 C           3.0040   22.6930   23.0650 C.ar    1  UNL1       -0.0567
     43 C           5.3800   22.3580   23.8550 C.3     1  UNL1        0.0421
     44 C           0.6280   19.1780   19.9800 C.3     1  UNL1        0.1502
     45 N          -0.3050   22.2300   18.2850 N.ar    1  UNL1       -0.0826
     46 O           3.7630   21.7830   26.1340 O.2     1  UNL1       -0.1582
     47 O           5.5460   20.1760   26.9070 O.2     1  UNL1       -0.1582
     48 O          -0.3490   20.8810   18.5810 O.2     1  UNL1       -0.3553
     49 O           0.2960   19.1450   21.3690 O.3     1  UNL1       -0.4842
     50 S           4.6830   20.7000   25.8710 S.O2    1  UNL1        0.0297
@<TRIPOS>BOND
     1    45    48   ar
     2    45    34   ar
     3    10    38    1
     4    48    33   ar
     5    20    38    1
     6    38    34    1
     7    38    22    1
     8    34    29   ar
     9    16    44    1
    10    33    29   ar
    11    33    44    1
    12     3    24    1
    13     1    44    1
    14    29    28    1
    15    44    49    1
    16     5    26    1
    17    24    28   ar
    18    24    41   ar
    19    28    25   ar
    20    49    32    1
    21    13    41    1
    22    26    32   ar
    23    26    23   ar
    24    41    30   ar
    25     2    23    1
    26    32    27   ar
    27    25     4    1
    28    25    42   ar
    29    23    40   ar
    30    30    42   ar
    31    30    43    1
    32    42    14    1
    33    21    43    1
    34    27     6    1
    35    27    31   ar
    36    40    31   ar
    37    40    12    1
    38    43    15    1
    39    43    39    1
    40     9    37    1
    41    31    35    1
    42    39    11    1
    43    39    50    1
    44    19    37    1
    45    37    50    1
    46    37    36    1
    47    35     7    1
    48    35    36    1
    49    35    17    1
    50    50    46    2
    51    50    47    2
    52    18    36    1
    53    36     8    1
