@<TRIPOS>MOLECULE
-26.62239
 50 53 0 0 0
SMALL
GASTEIGER

@<TRIPOS>ATOM
      1 H           9.0350   14.4020   24.1330 H       1  UNL1        0.0780
      2 H           3.7930   16.8600   22.8580 H       1  UNL1        0.0619
      3 H           8.6710   18.5330   21.8970 H       1  UNL1        0.0624
      4 H          11.1820   15.9280   24.2450 H       1  UNL1        0.0624
      5 H           5.2570   15.1100   21.8920 H       1  UNL1        0.0654
      6 H           7.6350   15.1320   25.4740 H       1  UNL1        0.0657
      7 H           7.0840   16.4620   27.2760 H       1  UNL1        0.0314
      8 H           7.3160   18.7000   25.7980 H       1  UNL1        0.0284
      9 H           8.5290   18.2710   27.9650 H       1  UNL1        0.0515
     10 H          11.2820   16.9620   18.8700 H       1  UNL1        0.0294
     11 H           8.5370   21.4890   25.7680 H       1  UNL1        0.1480
     12 H           4.2580   17.7680   25.1090 H       1  UNL1        0.0620
     13 H           8.8500   20.2630   23.6220 H       1  UNL1        0.0621
     14 H          11.3260   17.6390   25.9970 H       1  UNL1        0.0621
     15 H          10.8650   20.9230   25.6990 H       1  UNL1        0.0490
     16 H           9.0350   13.0090   23.0810 H       1  UNL1        0.0780
     17 H           5.4200   16.9880   27.4430 H       1  UNL1        0.0314
     18 H           5.8880   19.1950   26.6790 H       1  UNL1        0.0284
     19 H           7.0880   18.8010   28.8550 H       1  UNL1        0.0515
     20 H          11.5870   17.7830   20.4050 H       1  UNL1        0.0294
     21 H          10.6290   19.6910   26.9330 H       1  UNL1        0.0490
     22 H          10.0530   18.0430   19.5490 H       1  UNL1        0.0294
     23 C           4.6440   16.4920   23.4250 C.ar    1  UNL1       -0.0580
     24 C           9.2620   18.3310   22.7880 C.ar    1  UNL1       -0.0536
     25 C          10.6490   16.8660   24.1100 C.ar    1  UNL1       -0.0536
     26 C           5.4690   15.5090   22.8820 C.ar    1  UNL1       -0.0199
     27 C           6.8200   15.5260   24.8780 C.ar    1  UNL1       -0.0167
     28 C           9.9030   17.0990   22.9510 C.ar    1  UNL1       -0.0127
     29 C           9.8220   16.1010   21.9060 C.ar    1  UNL1        0.0503
     30 C          10.0850   19.0790   24.9550 C.ar    1  UNL1       -0.0319
     31 C           5.9980   16.5210   25.4350 C.ar    1  UNL1       -0.0439
     32 C           6.5700   15.0350   23.5960 C.ar    1  UNL1        0.1214
     33 C           9.3030   14.8310   22.0470 C.ar    1  UNL1        0.1823
     34 C          10.2020   16.1680   20.5380 C.ar    1  UNL1        0.0886
     35 C           6.3070   17.0770   26.8040 C.3     1  UNL1       -0.0260
     36 C           6.7630   18.5350   26.7270 C.3     1  UNL1       -0.0281
     37 C           7.6390   18.9080   27.9150 C.3     1  UNL1        0.0820
     38 C          10.8140   17.2980   19.8010 C.3     1  UNL1       -0.0185
     39 N           8.8880   20.7260   26.3420 N.3     1  UNL1       -0.1902
     40 C           4.9090   17.0000   24.6970 C.ar    1  UNL1       -0.0583
     41 C           9.3610   19.3150   23.7760 C.ar    1  UNL1       -0.0567
     42 C          10.7370   17.8470   25.1050 C.ar    1  UNL1       -0.0567
     43 C          10.1840   20.1340   26.0350 C.3     1  UNL1        0.0421
     44 C           8.7030   14.0510   23.1540 C.3     1  UNL1        0.1502
     45 N           9.9500   15.0160   19.9050 N.ar    1  UNL1       -0.0826
     46 O           7.0670   21.4770   27.8470 O.2     1  UNL1       -0.1582
     47 O           9.2790   20.7650   28.8230 O.2     1  UNL1       -0.1582
     48 O           9.3860   14.1830   20.8510 O.2     1  UNL1       -0.3553
     49 O           7.2830   14.0430   22.9850 O.3     1  UNL1       -0.4842
     50 S           8.2180   20.6020   27.8540 S.O2    1  UNL1        0.0297
@<TRIPOS>BOND
     1    10    38    1
     2    22    38    1
     3    38    20    1
     4    38    34    1
     5    45    34   ar
     6    45    48   ar
     7    34    29   ar
     8    48    33   ar
     9     5    26    1
    10     3    24    1
    11    29    33   ar
    12    29    28    1
    13    33    44    1
    14    24    28   ar
    15    24    41   ar
    16     2    23    1
    17    26    23   ar
    18    26    32   ar
    19    28    25   ar
    20    49    44    1
    21    49    32    1
    22    16    44    1
    23    44     1    1
    24    23    40   ar
    25    32    27   ar
    26    13    41    1
    27    41    30   ar
    28    25     4    1
    29    25    42   ar
    30    40    12    1
    31    40    31   ar
    32    27    31   ar
    33    27     6    1
    34    30    42   ar
    35    30    43    1
    36    42    14    1
    37    31    35    1
    38    15    43    1
    39    11    39    1
    40     8    36    1
    41    43    39    1
    42    43    21    1
    43    39    50    1
    44    18    36    1
    45    36    35    1
    46    36    37    1
    47    35     7    1
    48    35    17    1
    49    46    50    2
    50    50    37    1
    51    50    47    2
    52    37     9    1
    53    37    19    1
