@<TRIPOS>MOLECULE
-30.13586
 50 53 0 0 0
SMALL
GASTEIGER

@<TRIPOS>ATOM
      1 H           8.1880   17.4680   16.7020 H       1  UNL1        0.0780
      2 H           8.7730   11.7110   16.9680 H       1  UNL1        0.0619
      3 H           4.8300   18.6900   18.0530 H       1  UNL1        0.0624
      4 H           5.8340   14.6580   16.8920 H       1  UNL1        0.0624
      5 H           8.1570   13.3630   15.2290 H       1  UNL1        0.0654
      6 H           9.7940   16.5200   17.6530 H       1  UNL1        0.0657
      7 H          11.0450   15.9610   19.6310 H       1  UNL1        0.0314
      8 H          10.1660   15.1170   21.8850 H       1  UNL1        0.0284
      9 H           8.0900   16.3870   20.0030 H       1  UNL1        0.0515
     10 H           2.4830   17.6440   14.1930 H       1  UNL1        0.0294
     11 H           6.4670   14.5360   22.8150 H       1  UNL1        0.1480
     12 H           9.8460   12.4580   19.0640 H       1  UNL1        0.0620
     13 H           4.7250   17.9850   20.4060 H       1  UNL1        0.0621
     14 H           5.7480   13.9550   19.2480 H       1  UNL1        0.0621
     15 H           4.5550   14.5900   21.5160 H       1  UNL1        0.0490
     16 H           8.6900   17.8880   15.0620 H       1  UNL1        0.0780
     17 H          11.3330   14.2810   20.0220 H       1  UNL1        0.0314
     18 H           8.9530   14.1820   21.0270 H       1  UNL1        0.0284
     19 H           9.3050   17.2340   20.9650 H       1  UNL1        0.0515
     20 H           2.7020   18.4020   15.7800 H       1  UNL1        0.0294
     21 H           4.6690   16.2320   22.0720 H       1  UNL1        0.0490
     22 H           2.6420   16.6340   15.6360 H       1  UNL1        0.0294
     23 C           8.9770   12.7660   17.1270 C.ar    1  UNL1       -0.0580
     24 C           5.0180   17.6480   18.3040 C.ar    1  UNL1       -0.0536
     25 C           5.5860   15.3910   17.6570 C.ar    1  UNL1       -0.0536
     26 C           8.6330   13.6970   16.1480 C.ar    1  UNL1       -0.0199
     27 C           9.5290   15.4770   17.5080 C.ar    1  UNL1       -0.0167
     28 C           5.3420   16.7230   17.3090 C.ar    1  UNL1       -0.0127
     29 C           5.4520   17.1480   15.9340 C.ar    1  UNL1        0.0503
     30 C           5.2160   15.9150   19.9990 C.ar    1  UNL1       -0.0319
     31 C           9.8720   14.5500   18.5050 C.ar    1  UNL1       -0.0439
     32 C           8.8800   15.0570   16.3450 C.ar    1  UNL1        0.1214
     33 C           6.6460   17.3300   15.2700 C.ar    1  UNL1        0.1823
     34 C           4.4660   17.5220   14.9890 C.ar    1  UNL1        0.0886
     35 C          10.5380   15.0000   19.7820 C.3     1  UNL1       -0.0260
     36 C           9.5700   15.0860   20.9640 C.3     1  UNL1       -0.0281
     37 C           8.6870   16.3300   20.9150 C.3     1  UNL1        0.0820
     38 C           2.9950   17.5520   15.1560 C.3     1  UNL1       -0.0185
     39 N           6.4940   15.1660   22.0120 N.3     1  UNL1       -0.1902
     40 C           9.5840   13.1930   18.3060 C.ar    1  UNL1       -0.0583
     41 C           4.9570   17.2460   19.6400 C.ar    1  UNL1       -0.0567
     42 C           5.5310   14.9910   18.9940 C.ar    1  UNL1       -0.0567
     43 C           5.1780   15.4910   21.4440 C.3     1  UNL1        0.0421
     44 C           8.0720   17.1980   15.6480 C.3     1  UNL1        0.1502
     45 N           5.0220   17.8920   13.8280 N.ar    1  UNL1       -0.0826
     46 O           8.2850   16.0310   23.5040 O.2     1  UNL1       -0.1582
     47 O           6.8420   17.6740   22.2630 O.2     1  UNL1       -0.1582
     48 O           6.3890   17.7650   14.0060 O.2     1  UNL1       -0.3553
     49 O           8.4770   15.8680   15.3230 O.3     1  UNL1       -0.4842
     50 S           7.5650   16.4240   22.3120 S.O2    1  UNL1        0.0297
@<TRIPOS>BOND
     1    45    48   ar
     2    45    34   ar
     3    48    33   ar
     4    10    38    1
     5    34    38    1
     6    34    29   ar
     7    16    44    1
     8    38    22    1
     9    38    20    1
    10     5    26    1
    11    33    44    1
    12    33    29   ar
    13    49    44    1
    14    49    32    1
    15    44     1    1
    16    29    28    1
    17    26    32   ar
    18    26    23   ar
    19    32    27   ar
    20     4    25    1
    21     2    23    1
    22    23    40   ar
    23    28    25   ar
    24    28    24   ar
    25    27     6    1
    26    27    31   ar
    27    25    42   ar
    28     3    24    1
    29    24    41   ar
    30    40    31   ar
    31    40    12    1
    32    31    35    1
    33    42    14    1
    34    42    30   ar
    35     7    35    1
    36    41    30   ar
    37    41    13    1
    38    35    17    1
    39    35    36    1
    40    30    43    1
    41     9    37    1
    42    37    36    1
    43    37    19    1
    44    37    50    1
    45    36    18    1
    46    36     8    1
    47    43    15    1
    48    43    39    1
    49    43    21    1
    50    39    50    1
    51    39    11    1
    52    47    50    2
    53    50    46    2
