@<TRIPOS>MOLECULE
-30.71219
 50 53 0 0 0
SMALL
GASTEIGER

@<TRIPOS>ATOM
      1 H          13.0150    8.7070   15.6060 H       1  UNL1        0.0780
      2 H          12.0550   11.9300   12.4650 H       1  UNL1        0.0619
      3 H          12.6920   13.9260   17.2820 H       1  UNL1        0.0624
      4 H          15.2580   10.7400   18.6550 H       1  UNL1        0.0624
      5 H          12.2270   10.4480   14.4010 H       1  UNL1        0.0654
      6 H          16.4170   11.3430   14.7270 H       1  UNL1        0.0657
      7 H          16.1870   14.0910   12.1440 H       1  UNL1        0.0314
      8 H          18.3960   14.1470   13.1430 H       1  UNL1        0.0284
      9 H          16.2970   13.8790   15.3630 H       1  UNL1        0.0515
     10 H          10.0080   12.1610   19.9160 H       1  UNL1        0.0294
     11 H          17.8860   16.6590   17.2650 H       1  UNL1        0.1480
     12 H          14.0150   13.1820   11.6490 H       1  UNL1        0.0620
     13 H          14.5490   15.5180   17.5030 H       1  UNL1        0.0621
     14 H          17.1250   12.3220   18.8260 H       1  UNL1        0.0621
     15 H          17.9940   14.5550   18.7880 H       1  UNL1        0.0490
     16 H          14.0300    8.5250   17.0240 H       1  UNL1        0.0780
     17 H          17.0350   12.5770   11.8460 H       1  UNL1        0.0314
     18 H          18.1040   12.6930   14.0690 H       1  UNL1        0.0284
     19 H          16.5950   15.3530   14.4080 H       1  UNL1        0.0515
     20 H          10.5560   13.3550   18.7270 H       1  UNL1        0.0294
     21 H          16.7920   15.7740   19.0870 H       1  UNL1        0.0490
     22 H          11.6300   12.8490   20.0490 H       1  UNL1        0.0294
     23 C          13.0140   11.8110   12.9630 C.ar    1  UNL1       -0.0580
     24 C          13.6540   13.5650   17.6380 C.ar    1  UNL1       -0.0536
     25 C          15.0900   11.7820   18.3950 C.ar    1  UNL1       -0.0536
     26 C          13.1220   10.9600   14.0640 C.ar    1  UNL1       -0.0199
     27 C          15.4670   11.4970   14.2190 C.ar    1  UNL1       -0.0167
     28 C          13.8310   12.2150   17.9640 C.ar    1  UNL1       -0.0127
     29 C          12.7040   11.3030   17.8960 C.ar    1  UNL1        0.0503
     30 C          15.9720   14.0430   18.1920 C.ar    1  UNL1       -0.0319
     31 C          15.3670   12.3890   13.1420 C.ar    1  UNL1       -0.0439
     32 C          14.3510   10.8030   14.6990 C.ar    1  UNL1        0.1214
     33 C          12.6520   10.1010   17.2160 C.ar    1  UNL1        0.1823
     34 C          11.4090   11.4230   18.4760 C.ar    1  UNL1        0.0886
     35 C          16.5510   13.1750   12.6280 C.3     1  UNL1       -0.0260
     36 C          17.6100   13.5820   13.6610 C.3     1  UNL1       -0.0281
     37 C          17.0430   14.4330   14.7940 C.3     1  UNL1        0.0820
     38 C          10.8720   12.5040   19.3380 C.3     1  UNL1       -0.0185
     39 N          17.4660   15.7400   17.1180 N.3     1  UNL1       -0.1902
     40 C          14.1270   12.5200   12.5060 C.ar    1  UNL1       -0.0583
     41 C          14.7120   14.4720   17.7570 C.ar    1  UNL1       -0.0567
     42 C          16.1520   12.6870   18.5000 C.ar    1  UNL1       -0.0567
     43 C          17.1050   15.0240   18.3500 C.3     1  UNL1        0.0421
     44 C          13.5540    9.2710   16.3770 C.3     1  UNL1        0.1502
     45 N          10.6340   10.3800   18.1630 N.ar    1  UNL1       -0.0826
     46 O          18.9140   13.7290   16.5470 O.2     1  UNL1       -0.1582
     47 O          19.1530   15.9110   15.3040 O.2     1  UNL1       -0.1582
     48 O          11.4130    9.5560   17.3830 O.2     1  UNL1       -0.3553
     49 O          14.6060   10.0470   15.8080 O.3     1  UNL1       -0.4842
     50 S          18.3310   14.9060   15.9440 S.O2    1  UNL1        0.0297
@<TRIPOS>BOND
     1    12    40    1
     2    17    35    1
     3     7    35    1
     4     2    23    1
     5    40    23   ar
     6    40    31   ar
     7    35    31    1
     8    35    36    1
     9    23    26   ar
    10    31    27   ar
    11     8    36    1
    12    36    18    1
    13    36    37    1
    14    26     5    1
    15    26    32   ar
    16    27    32   ar
    17    27     6    1
    18    19    37    1
    19    32    49    1
    20    37     9    1
    21    37    50    1
    22    47    50    2
    23     1    44    1
    24    49    44    1
    25    50    46    2
    26    50    39    1
    27    44    16    1
    28    44    33    1
    29    39    11    1
    30    39    43    1
    31    33    48   ar
    32    33    29   ar
    33     3    24    1
    34    48    45   ar
    35    13    41    1
    36    24    41   ar
    37    24    28   ar
    38    41    30   ar
    39    29    28    1
    40    29    34   ar
    41    28    25   ar
    42    45    34   ar
    43    30    43    1
    44    30    42   ar
    45    43    15    1
    46    43    21    1
    47    25    42   ar
    48    25     4    1
    49    34    38    1
    50    42    14    1
    51    20    38    1
    52    38    10    1
    53    38    22    1
