@<TRIPOS>MOLECULE
-28.98984
 50 53 0 0 0
SMALL
GASTEIGER

@<TRIPOS>ATOM
      1 H           8.6150   14.3550   13.2300 H       1  UNL1        0.0780
      2 H          10.7890   11.0920   15.4290 H       1  UNL1        0.0619
      3 H          10.2080   15.9760   12.0100 H       1  UNL1        0.0624
      4 H           9.1880   19.3050   14.5590 H       1  UNL1        0.0624
      5 H           8.9250   12.4660   14.6130 H       1  UNL1        0.0654
      6 H          10.5300   15.8810   16.6790 H       1  UNL1        0.0657
      7 H          12.8690   13.9530   18.6250 H       1  UNL1        0.0314
      8 H          14.4210   13.9490   16.6690 H       1  UNL1        0.0284
      9 H          13.2810   15.7280   15.2400 H       1  UNL1        0.0515
     10 H           6.2250   19.7790   11.4910 H       1  UNL1        0.0294
     11 H          15.1250   18.9560   15.4120 H       1  UNL1        0.1480
     12 H          12.5330   12.0660   16.8780 H       1  UNL1        0.0620
     13 H          12.5850   16.3920   12.4130 H       1  UNL1        0.0621
     14 H          11.5720   19.7420   14.9390 H       1  UNL1        0.0621
     15 H          13.9990   19.2230   13.3550 H       1  UNL1        0.0490
     16 H           7.1170   14.1880   14.1930 H       1  UNL1        0.0780
     17 H          12.3370   15.5660   18.2510 H       1  UNL1        0.0314
     18 H          14.7890   15.1820   17.8630 H       1  UNL1        0.0284
     19 H          15.0260   15.9530   15.5030 H       1  UNL1        0.0515
     20 H           7.9900   19.6850   11.4520 H       1  UNL1        0.0294
     21 H          14.3280   17.5190   13.5490 H       1  UNL1        0.0490
     22 H           7.1620   20.2240   12.9270 H       1  UNL1        0.0294
     23 C          10.7430   12.1460   15.6920 C.ar    1  UNL1       -0.0580
     24 C          10.4950   16.8010   12.6570 C.ar    1  UNL1       -0.0536
     25 C           9.9240   18.6740   14.0650 C.ar    1  UNL1       -0.0536
     26 C           9.6900   12.9340   15.2230 C.ar    1  UNL1       -0.0199
     27 C          10.6040   14.8300   16.4040 C.ar    1  UNL1       -0.0167
     28 C           9.5220   17.6060   13.2580 C.ar    1  UNL1       -0.0127
     29 C           8.1150   17.3250   13.0660 C.ar    1  UNL1        0.0503
     30 C          12.2610   18.0900   13.7240 C.ar    1  UNL1       -0.0319
     31 C          11.6650   14.0480   16.8830 C.ar    1  UNL1       -0.0439
     32 C           9.6280   14.2840   15.5660 C.ar    1  UNL1        0.1214
     33 C           7.5020   16.1320   13.3920 C.ar    1  UNL1        0.1823
     34 C           7.0570   18.1310   12.5740 C.ar    1  UNL1        0.0886
     35 C          12.7120   14.6470   17.7880 C.3     1  UNL1       -0.0260
     36 C          14.0580   14.8920   17.0980 C.3     1  UNL1       -0.0281
     37 C          14.0440   15.9450   15.9890 C.3     1  UNL1        0.0820
     38 C           7.1100   19.5280   12.0840 C.3     1  UNL1       -0.0185
     39 N          14.1760   18.5930   15.3230 N.3     1  UNL1       -0.1902
     40 C          11.7270   12.6990   16.5130 C.ar    1  UNL1       -0.0583
     41 C          11.8520   17.0410   12.8880 C.ar    1  UNL1       -0.0567
     42 C          11.2820   18.9200   14.2860 C.ar    1  UNL1       -0.0567
     43 C          13.7270   18.3430   13.9520 C.3     1  UNL1        0.0421
     44 C           7.9640   14.8440   13.9640 C.3     1  UNL1        0.1502
     45 N           5.8950   17.4640   12.5740 N.ar    1  UNL1       -0.0826
     46 O          12.3830   17.7950   16.9250 O.2     1  UNL1       -0.1582
     47 O          14.8030   17.8840   17.5980 O.2     1  UNL1       -0.1582
     48 O           6.1780   16.2140   13.0900 O.2     1  UNL1       -0.3553
     49 O           8.6520   15.1550   15.1740 O.3     1  UNL1       -0.4842
     50 S          13.7790   17.6070   16.6120 S.O2    1  UNL1        0.0297
@<TRIPOS>BOND
     1    20    38    1
     2    10    38    1
     3     3    24    1
     4    38    34    1
     5    38    22    1
     6    13    41    1
     7    34    45   ar
     8    34    29   ar
     9    45    48   ar
    10    24    41   ar
    11    24    28   ar
    12    41    30   ar
    13    29    28    1
    14    29    33   ar
    15    48    33   ar
    16     1    44    1
    17    28    25   ar
    18    15    43    1
    19    33    44    1
    20    21    43    1
    21    30    43    1
    22    30    42   ar
    23    43    39    1
    24    44    16    1
    25    44    49    1
    26    25    42   ar
    27    25     4    1
    28    42    14    1
    29     5    26    1
    30    49    32    1
    31    26    32   ar
    32    26    23   ar
    33     9    37    1
    34    39    11    1
    35    39    50    1
    36     2    23    1
    37    19    37    1
    38    32    27   ar
    39    23    40   ar
    40    37    50    1
    41    37    36    1
    42    27     6    1
    43    27    31   ar
    44    40    12    1
    45    40    31   ar
    46    50    46    2
    47    50    47    2
    48     8    36    1
    49    31    35    1
    50    36    35    1
    51    36    18    1
    52    35    17    1
    53    35     7    1
