@<TRIPOS>MOLECULE
-32.96801
 50 53 0 0 0
SMALL
GASTEIGER

@<TRIPOS>ATOM
      1 H          11.9980   17.5010   22.0850 H       1  UNL1        0.0780
      2 H          15.3780   18.2550   18.9980 H       1  UNL1        0.0619
      3 H           8.5080   16.5310   22.1980 H       1  UNL1        0.0624
      4 H           8.9820   20.8170   22.1020 H       1  UNL1        0.0624
      5 H          14.4380   18.6040   21.2490 H       1  UNL1        0.0654
      6 H          10.8230   20.1570   19.5080 H       1  UNL1        0.0657
      7 H          12.2040   20.2680   16.1170 H       1  UNL1        0.0314
      8 H          11.5540   17.7890   16.2300 H       1  UNL1        0.0284
      9 H           9.7780   18.1680   18.1620 H       1  UNL1        0.0515
     10 H           7.7680   18.8290   26.4820 H       1  UNL1        0.0294
     11 H           6.2730   17.8850   16.8830 H       1  UNL1        0.1480
     12 H          14.0600   18.8220   16.9900 H       1  UNL1        0.0620
     13 H           7.1430   16.6380   20.1470 H       1  UNL1        0.0621
     14 H           7.6200   20.9260   20.0570 H       1  UNL1        0.0621
     15 H           6.0800   19.8940   18.5200 H       1  UNL1        0.0490
     16 H          13.0390   18.5190   23.1280 H       1  UNL1        0.0780
     17 H          10.8100   20.6490   17.0940 H       1  UNL1        0.0314
     18 H          10.5340   18.8380   15.2590 H       1  UNL1        0.0284
     19 H           9.3860   17.1040   16.7930 H       1  UNL1        0.0515
     20 H           7.2260   17.8080   25.1400 H       1  UNL1        0.0294
     21 H           5.4520   18.3400   18.9690 H       1  UNL1        0.0490
     22 H           7.2560   19.5740   24.9610 H       1  UNL1        0.0294
     23 C          14.3740   18.6570   19.1080 C.ar    1  UNL1       -0.0580
     24 C           8.3170   17.4960   21.7330 C.ar    1  UNL1       -0.0536
     25 C           8.5770   19.8980   21.6830 C.ar    1  UNL1       -0.0536
     26 C          13.8340   18.8470   20.3800 C.ar    1  UNL1       -0.0199
     27 C          11.8160   19.7310   19.3840 C.ar    1  UNL1       -0.0167
     28 C           8.8310   18.6680   22.2940 C.ar    1  UNL1       -0.0127
     29 C           9.5930   18.6170   23.5190 C.ar    1  UNL1        0.0503
     30 C           7.2670   18.7900   19.9620 C.ar    1  UNL1       -0.0319
     31 C          12.3420   19.5280   18.1020 C.ar    1  UNL1       -0.0439
     32 C          12.5450   19.3620   20.5150 C.ar    1  UNL1        0.1214
     33 C          10.9660   18.5450   23.5980 C.ar    1  UNL1        0.1823
     34 C           9.1640   18.6370   24.8700 C.ar    1  UNL1        0.0886
     35 C          11.5270   19.8510   16.8740 C.3     1  UNL1       -0.0260
     36 C          10.8330   18.6140   16.2900 C.3     1  UNL1       -0.0281
     37 C           9.6160   18.1360   17.0830 C.3     1  UNL1        0.0820
     38 C           7.7810   18.7170   25.3930 C.3     1  UNL1       -0.0185
     39 N           6.9660   18.2360   17.5460 N.3     1  UNL1       -0.1902
     40 C          13.6280   18.9850   17.9750 C.ar    1  UNL1       -0.0583
     41 C           7.5420   17.5570   20.5710 C.ar    1  UNL1       -0.0567
     42 C           7.8020   19.9580   20.5220 C.ar    1  UNL1       -0.0567
     43 C           6.3890   18.8650   18.7400 C.3     1  UNL1        0.0421
     44 C          12.0720   18.4590   22.6170 C.3     1  UNL1        0.1502
     45 N          10.2040   18.5640   25.7100 N.ar    1  UNL1       -0.0826
     46 O           8.2560   20.4180   17.2570 O.2     1  UNL1       -0.1582
     47 O           7.8220   18.8750   15.3090 O.2     1  UNL1       -0.1582
     48 O          11.3310   18.5100   24.9100 O.2     1  UNL1       -0.3553
     49 O          11.9370   19.5680   21.7240 O.3     1  UNL1       -0.4842
     50 S           8.1470   19.0890   16.7030 S.O2    1  UNL1        0.0297
@<TRIPOS>BOND
     1    18    36    1
     2    47    50    2
     3     7    35    1
     4     8    36    1
     5    36    35    1
     6    36    37    1
     7    50    37    1
     8    50    46    2
     9    50    39    1
    10    19    37    1
    11    35    17    1
    12    35    31    1
    13    11    39    1
    14    12    40    1
    15    37     9    1
    16    39    43    1
    17    40    31   ar
    18    40    23   ar
    19    31    27   ar
    20    15    43    1
    21    43    21    1
    22    43    30    1
    23     2    23    1
    24    23    26   ar
    25    27     6    1
    26    27    32   ar
    27    30    42   ar
    28    30    41   ar
    29    14    42    1
    30    13    41    1
    31    26    32   ar
    32    26     5    1
    33    32    49    1
    34    42    25   ar
    35    41    24   ar
    36    25     4    1
    37    25    28   ar
    38    49    44    1
    39    24     3    1
    40    24    28   ar
    41     1    44    1
    42    28    29    1
    43    44    16    1
    44    44    33    1
    45    29    33   ar
    46    29    34   ar
    47    33    48   ar
    48    34    38    1
    49    34    45   ar
    50    48    45   ar
    51    22    38    1
    52    20    38    1
    53    38    10    1
