@<TRIPOS>MOLECULE
-19.29718
 50 53 0 0 0
SMALL
GASTEIGER

@<TRIPOS>ATOM
      1 H          12.1500   19.8290   11.6600 H       1  UNL1        0.0780
      2 H          12.2240   25.1660   13.6180 H       1  UNL1        0.0619
      3 H          10.4060   17.0880   13.1670 H       1  UNL1        0.0624
      4 H          13.0570   18.9610   16.0040 H       1  UNL1        0.0624
      5 H          13.7640   23.2230   13.6480 H       1  UNL1        0.0654
      6 H          10.4530   20.5860   12.9240 H       1  UNL1        0.0657
      7 H           8.3050   21.5010   12.3280 H       1  UNL1        0.0314
      8 H           6.5760   22.7220   13.6790 H       1  UNL1        0.0284
      9 H           8.0910   20.5750   14.5110 H       1  UNL1        0.0515
     10 H          14.5740   14.6240   14.1220 H       1  UNL1        0.0294
     11 H           8.9300   20.5740   18.3000 H       1  UNL1        0.1480
     12 H           9.8130   24.8360   13.2160 H       1  UNL1        0.0620
     13 H           8.4810   17.6980   14.5630 H       1  UNL1        0.0621
     14 H          11.1440   19.5580   17.4130 H       1  UNL1        0.0621
     15 H           8.4230   18.3990   17.7700 H       1  UNL1        0.0490
     16 H          13.8590   20.2590   11.4660 H       1  UNL1        0.0780
     17 H           8.1640   23.2140   12.0320 H       1  UNL1        0.0314
     18 H           7.8320   23.5940   14.5430 H       1  UNL1        0.0284
     19 H           6.6620   21.2290   15.3460 H       1  UNL1        0.0515
     20 H          12.8070   14.7540   14.1190 H       1  UNL1        0.0294
     21 H           7.5380   18.9050   16.3490 H       1  UNL1        0.0490
     22 H          13.7550   15.5190   15.4100 H       1  UNL1        0.0294
     23 C          11.8390   24.1660   13.4370 C.ar    1  UNL1       -0.0580
     24 C          10.5710   17.6270   14.0970 C.ar    1  UNL1       -0.0536
     25 C          12.0580   18.6620   15.6940 C.ar    1  UNL1       -0.0536
     26 C          12.7060   23.0750   13.4500 C.ar    1  UNL1       -0.0199
     27 C          10.8440   21.5930   13.0250 C.ar    1  UNL1       -0.0167
     28 C          11.8630   17.9870   14.4870 C.ar    1  UNL1       -0.0127
     29 C          12.9850   17.6880   13.6340 C.ar    1  UNL1        0.0503
     30 C           9.6590   18.7010   16.0850 C.ar    1  UNL1       -0.0319
     31 C           9.9620   22.6840   13.0110 C.ar    1  UNL1       -0.0439
     32 C          12.2130   21.7930   13.2210 C.ar    1  UNL1        0.1214
     33 C          13.4820   18.5410   12.6720 C.ar    1  UNL1        0.1823
     34 C          13.8070   16.5380   13.5430 C.ar    1  UNL1        0.0886
     35 C           8.4870   22.4820   12.7850 C.3     1  UNL1       -0.0260
     36 C           7.6120   22.6490   14.0350 C.3     1  UNL1       -0.0281
     37 C           7.6740   21.4590   14.9950 C.3     1  UNL1        0.0820
     38 C          13.7340   15.2930   14.3400 C.3     1  UNL1       -0.0185
     39 N           8.3850   20.4540   17.4450 N.3     1  UNL1       -0.1902
     40 C          10.4750   23.9730   13.2140 C.ar    1  UNL1       -0.0583
     41 C           9.4790   17.9800   14.8930 C.ar    1  UNL1       -0.0567
     42 C          10.9640   19.0040   16.4940 C.ar    1  UNL1       -0.0567
     43 C           8.4610   19.0850   16.9140 C.3     1  UNL1        0.0421
     44 C          13.1130   19.8900   12.1790 C.3     1  UNL1        0.1502
     45 N          14.7310   16.6780   12.5830 N.ar    1  UNL1       -0.0826
     46 O          10.0320   21.8650   16.1810 O.2     1  UNL1       -0.1582
     47 O           7.9860   22.8950   17.1910 O.2     1  UNL1       -0.1582
     48 O          14.5260   17.9350   12.0430 O.2     1  UNL1       -0.3553
     49 O          13.1110   20.7650   13.3090 O.3     1  UNL1       -0.4842
     50 S           8.6230   21.8080   16.4790 S.O2    1  UNL1        0.0297
@<TRIPOS>BOND
     1    16    44    1
     2     1    44    1
     3    17    35    1
     4    48    45   ar
     5    48    33   ar
     6    44    33    1
     7    44    49    1
     8     7    35    1
     9    45    34   ar
    10    33    29   ar
    11    35    31    1
    12    35    36    1
    13     6    27    1
    14    31    27   ar
    15    31    40   ar
    16    27    32   ar
    17     3    24    1
    18    40    12    1
    19    40    23   ar
    20    32    49    1
    21    32    26   ar
    22    23    26   ar
    23    23     2    1
    24    26     5    1
    25    34    29   ar
    26    34    38    1
    27    29    28    1
    28     8    36    1
    29    36    18    1
    30    36    37    1
    31    24    28   ar
    32    24    41   ar
    33    20    38    1
    34    10    38    1
    35    38    22    1
    36    28    25   ar
    37     9    37    1
    38    13    41    1
    39    41    30   ar
    40    37    19    1
    41    37    50    1
    42    25     4    1
    43    25    42   ar
    44    30    42   ar
    45    30    43    1
    46    46    50    2
    47    21    43    1
    48    50    47    2
    49    50    39    1
    50    42    14    1
    51    43    39    1
    52    43    15    1
    53    39    11    1
