@<TRIPOS>MOLECULE
-31.64799
 50 53 0 0 0
SMALL
GASTEIGER

@<TRIPOS>ATOM
      1 H           8.7180   14.4160   13.0740 H       1  UNL1        0.0780
      2 H          10.5190   10.7860   15.1970 H       1  UNL1        0.0619
      3 H           9.9870   16.8240   11.2530 H       1  UNL1        0.0624
      4 H           9.4160   18.4790   15.1940 H       1  UNL1        0.0624
      5 H           8.6320   12.2960   14.7190 H       1  UNL1        0.0654
      6 H          10.9460   15.6430   16.0990 H       1  UNL1        0.0657
      7 H          14.0190   13.4670   16.6870 H       1  UNL1        0.0314
      8 H          14.7960   15.7280   16.4570 H       1  UNL1        0.0284
      9 H          13.0800   15.3160   13.9460 H       1  UNL1        0.0515
     10 H           6.0570   19.9880   12.1890 H       1  UNL1        0.0294
     11 H          15.2780   18.4530   14.7390 H       1  UNL1        0.1480
     12 H          12.6350   11.6710   16.0960 H       1  UNL1        0.0620
     13 H          12.3780   17.4000   11.3540 H       1  UNL1        0.0621
     14 H          11.8090   19.0640   15.2950 H       1  UNL1        0.0621
     15 H          14.1480   18.7420   12.3530 H       1  UNL1        0.0490
     16 H           7.2140   14.0990   13.9920 H       1  UNL1        0.0780
     17 H          13.0990   14.5060   17.7610 H       1  UNL1        0.0314
     18 H          13.1930   16.3580   16.1460 H       1  UNL1        0.0284
     19 H          14.4790   14.2830   14.2920 H       1  UNL1        0.0515
     20 H           7.6360   19.7130   11.4350 H       1  UNL1        0.0294
     21 H          13.7470   19.7600   13.6940 H       1  UNL1        0.0490
     22 H           7.5350   20.2090   13.1370 H       1  UNL1        0.0294
     23 C          10.6230   11.8530   15.3760 C.ar    1  UNL1       -0.0580
     24 C          10.3790   17.3100   12.1430 C.ar    1  UNL1       -0.0536
     25 C          10.0600   18.2440   14.3490 C.ar    1  UNL1       -0.0536
     26 C           9.5600   12.7120   15.0990 C.ar    1  UNL1       -0.0199
     27 C          10.8780   14.5790   15.8900 C.ar    1  UNL1       -0.0167
     28 C           9.5360   17.6220   13.2130 C.ar    1  UNL1       -0.0127
     29 C           8.1230   17.3400   13.1330 C.ar    1  UNL1        0.0503
     30 C          12.2630   18.2940   13.3230 C.ar    1  UNL1       -0.0319
     31 C          11.9640   13.7310   16.1420 C.ar    1  UNL1       -0.0439
     32 C           9.6980   14.0780   15.3380 C.ar    1  UNL1        0.1214
     33 C           7.5390   16.1270   13.4230 C.ar    1  UNL1        0.1823
     34 C           7.0340   18.1740   12.7730 C.ar    1  UNL1        0.0886
     35 C          13.2600   14.2600   16.7040 C.3     1  UNL1       -0.0260
     36 C          13.8360   15.4860   15.9850 C.3     1  UNL1       -0.0281
     37 C          14.0290   15.2620   14.4870 C.3     1  UNL1        0.0820
     38 C           7.0650   19.5960   12.3620 C.3     1  UNL1       -0.0185
     39 N          14.5360   17.9280   14.2750 N.3     1  UNL1       -0.1902
     40 C          11.8180   12.3590   15.8890 C.ar    1  UNL1       -0.0583
     41 C          11.7360   17.6420   12.2000 C.ar    1  UNL1       -0.0567
     42 C          11.4170   18.5730   14.4060 C.ar    1  UNL1       -0.0567
     43 C          13.7090   18.7160   13.3570 C.3     1  UNL1        0.0421
     44 C           8.0430   14.8020   13.8480 C.3     1  UNL1        0.1502
     45 N           5.8740   17.5080   12.8270 N.ar    1  UNL1       -0.0826
     46 O          16.4260   16.3270   14.3850 O.2     1  UNL1       -0.1582
     47 O          15.0080   16.3910   12.3050 O.2     1  UNL1       -0.1582
     48 O           6.1940   16.2270   13.2380 O.2     1  UNL1       -0.3553
     49 O           8.7150   14.9980   15.0950 O.3     1  UNL1       -0.4842
     50 S          15.1350   16.4560   13.7430 S.O2    1  UNL1        0.0297
@<TRIPOS>BOND
     1     3    24    1
     2    13    41    1
     3    20    38    1
     4    24    41   ar
     5    24    28   ar
     6    10    38    1
     7    41    30   ar
     8    47    50    2
     9    15    43    1
    10    38    34    1
    11    38    22    1
    12    34    45   ar
    13    34    29   ar
    14    45    48   ar
    15     1    44    1
    16    29    28    1
    17    29    33   ar
    18    28    25   ar
    19    48    33   ar
    20    30    43    1
    21    30    42   ar
    22    43    21    1
    23    43    39    1
    24    33    44    1
    25    50    39    1
    26    50    46    2
    27    50    37    1
    28    44    16    1
    29    44    49    1
    30     9    37    1
    31    39    11    1
    32    19    37    1
    33    25    42   ar
    34    25     4    1
    35    42    14    1
    36    37    36    1
    37     5    26    1
    38    49    32    1
    39    26    32   ar
    40    26    23   ar
    41     2    23    1
    42    32    27   ar
    43    23    40   ar
    44    40    12    1
    45    40    31   ar
    46    27     6    1
    47    27    31   ar
    48    36    18    1
    49    36     8    1
    50    36    35    1
    51    31    35    1
    52     7    35    1
    53    35    17    1
