@<TRIPOS>MOLECULE
-33.66409
 50 53 0 0 0
SMALL
GASTEIGER

@<TRIPOS>ATOM
      1 H           8.5430   14.3520   13.4560 H       1  UNL1        0.0780
      2 H          10.0980   10.7830   15.6930 H       1  UNL1        0.0619
      3 H          10.1630   15.7640   12.0010 H       1  UNL1        0.0624
      4 H           9.7320   19.0690   14.7430 H       1  UNL1        0.0624
      5 H           8.3930   12.3690   14.9030 H       1  UNL1        0.0654
      6 H          10.4200   15.5720   16.9320 H       1  UNL1        0.0657
      7 H          12.7710   13.3140   18.6610 H       1  UNL1        0.0314
      8 H          13.9980   13.6430   16.4480 H       1  UNL1        0.0284
      9 H          13.2790   16.5870   16.9550 H       1  UNL1        0.0515
     10 H           6.7040   20.0370   11.8220 H       1  UNL1        0.0294
     11 H          15.4340   18.3550   15.0330 H       1  UNL1        0.1480
     12 H          11.9840   11.5560   17.0840 H       1  UNL1        0.0620
     13 H          12.6040   15.9780   12.1240 H       1  UNL1        0.0621
     14 H          12.1790   19.3000   14.8430 H       1  UNL1        0.0621
     15 H          14.2860   18.8540   13.1360 H       1  UNL1        0.0490
     16 H           6.9520   14.2800   14.2680 H       1  UNL1        0.0780
     17 H          12.1850   14.9580   18.5650 H       1  UNL1        0.0314
     18 H          14.5720   14.6120   17.7960 H       1  UNL1        0.0284
     19 H          12.7420   15.6200   15.5490 H       1  UNL1        0.0515
     20 H           8.4180   19.6620   11.6070 H       1  UNL1        0.0294
     21 H          14.5670   17.1780   12.7880 H       1  UNL1        0.0490
     22 H           7.8390   20.3110   13.1550 H       1  UNL1        0.0294
     23 C          10.1760   11.8350   15.9570 C.ar    1  UNL1       -0.0580
     24 C          10.5920   16.5350   12.6380 C.ar    1  UNL1       -0.0536
     25 C          10.3530   18.3910   14.1610 C.ar    1  UNL1       -0.0536
     26 C           9.2170   12.7410   15.5030 C.ar    1  UNL1       -0.0199
     27 C          10.3630   14.5190   16.6650 C.ar    1  UNL1       -0.0167
     28 C           9.7680   17.4030   13.3620 C.ar    1  UNL1       -0.0127
     29 C           8.3270   17.3130   13.2600 C.ar    1  UNL1        0.0503
     30 C          12.5730   17.6640   13.4830 C.ar    1  UNL1       -0.0319
     31 C          11.3380   13.6210   17.1160 C.ar    1  UNL1       -0.0439
     32 C           9.3250   14.0900   15.8370 C.ar    1  UNL1        0.1214
     33 C           7.5690   16.2150   13.6110 C.ar    1  UNL1        0.1823
     34 C           7.3670   18.2650   12.8250 C.ar    1  UNL1        0.0886
     35 C          12.4970   14.1040   17.9510 C.3     1  UNL1       -0.0260
     36 C          13.7240   14.4710   17.1140 C.3     1  UNL1       -0.0281
     37 C          13.5260   15.7480   16.2980 C.3     1  UNL1        0.0820
     38 C           7.5930   19.6410   12.3250 C.3     1  UNL1       -0.0185
     39 N          14.6620   17.7170   14.8360 N.3     1  UNL1       -0.1902
     40 C          11.2380   12.2740   16.7490 C.ar    1  UNL1       -0.0583
     41 C          11.9840   16.6620   12.7010 C.ar    1  UNL1       -0.0567
     42 C          11.7440   18.5200   14.2210 C.ar    1  UNL1       -0.0567
     43 C          14.0690   17.8420   13.5020 C.3     1  UNL1        0.0421
     44 C           7.8690   14.8690   14.1500 C.3     1  UNL1        0.1502
     45 N           6.1240   17.7720   12.8950 N.ar    1  UNL1       -0.0826
     46 O          16.0730   16.4020   16.3890 O.2     1  UNL1       -0.1582
     47 O          15.2060   15.2960   14.2940 O.2     1  UNL1       -0.1582
     48 O           6.2550   16.4890   13.3890 O.2     1  UNL1       -0.3553
     49 O           8.4630   15.0700   15.4320 O.3     1  UNL1       -0.4842
     50 S          15.0220   16.1850   15.4180 S.O2    1  UNL1        0.0297
@<TRIPOS>BOND
     1    20    38    1
     2    10    38    1
     3     3    24    1
     4    13    41    1
     5    38    34    1
     6    38    22    1
     7    24    41   ar
     8    24    28   ar
     9    41    30   ar
    10    21    43    1
    11    34    45   ar
    12    34    29   ar
    13    45    48   ar
    14    15    43    1
    15    29    28    1
    16    29    33   ar
    17    28    25   ar
    18    48    33   ar
    19     1    44    1
    20    30    43    1
    21    30    42   ar
    22    43    39    1
    23    33    44    1
    24    44    16    1
    25    44    49    1
    26    25    42   ar
    27    25     4    1
    28    42    14    1
    29    47    50    2
    30    39    11    1
    31    39    50    1
    32     5    26    1
    33    50    37    1
    34    50    46    2
    35    49    32    1
    36    26    32   ar
    37    26    23   ar
    38    19    37    1
    39     2    23    1
    40    32    27   ar
    41    23    40   ar
    42    37     9    1
    43    37    36    1
    44     8    36    1
    45    27     6    1
    46    27    31   ar
    47    40    12    1
    48    40    31   ar
    49    36    18    1
    50    36    35    1
    51    31    35    1
    52    35    17    1
    53    35     7    1
