@<TRIPOS>MOLECULE
-25.59616
 50 53 0 0 0
SMALL
GASTEIGER

@<TRIPOS>ATOM
      1 H           5.9240   11.9170   14.5910 H       1  UNL1        0.0780
      2 H           6.4020   16.9210   17.7970 H       1  UNL1        0.0619
      3 H           6.7150    9.1920   16.3730 H       1  UNL1        0.0624
      4 H           8.0710   12.9180   18.0700 H       1  UNL1        0.0624
      5 H           7.4990   15.9290   15.8140 H       1  UNL1        0.0654
      6 H           4.5080   12.8400   15.7250 H       1  UNL1        0.0657
      7 H           3.1880   12.4920   17.6860 H       1  UNL1        0.0314
      8 H           2.4540   14.8640   19.4490 H       1  UNL1        0.0284
      9 H           0.9170   12.6770   18.9560 H       1  UNL1        0.0515
     10 H          11.6880   10.1900   16.4040 H       1  UNL1        0.0294
     11 H           2.9230    9.9750   19.2050 H       1  UNL1        0.1480
     12 H           4.4020   15.8800   18.7660 H       1  UNL1        0.0620
     13 H           5.0890    8.9470   18.2060 H       1  UNL1        0.0621
     14 H           6.4430   12.6880   19.8880 H       1  UNL1        0.0621
     15 H           4.7750   11.5030   20.9940 H       1  UNL1        0.0490
     16 H           6.8120   12.3770   13.1590 H       1  UNL1        0.0780
     17 H           2.2440   13.9070   17.2380 H       1  UNL1        0.0314
     18 H           3.6210   13.6550   19.9730 H       1  UNL1        0.0284
     19 H           0.9610   13.5140   20.5150 H       1  UNL1        0.0515
     20 H          10.3140    9.2380   16.9900 H       1  UNL1        0.0294
     21 H           4.6880    9.7500   20.7850 H       1  UNL1        0.0490
     22 H          10.6930   10.8060   17.7320 H       1  UNL1        0.0294
     23 C           5.9990   16.0130   17.3550 C.ar    1  UNL1       -0.0580
     24 C           6.6650    9.9540   17.1470 C.ar    1  UNL1       -0.0536
     25 C           7.4340   12.0370   18.1040 C.ar    1  UNL1       -0.0536
     26 C           6.6160   15.4550   16.2360 C.ar    1  UNL1       -0.0199
     27 C           4.9590   13.7120   16.1870 C.ar    1  UNL1       -0.0167
     28 C           7.4990   11.0740   17.0950 C.ar    1  UNL1       -0.0127
     29 C           8.3970   11.2630   15.9850 C.ar    1  UNL1        0.0503
     30 C           5.6400   10.8010   19.1820 C.ar    1  UNL1       -0.0319
     31 C           4.3350   14.2480   17.3330 C.ar    1  UNL1       -0.0439
     32 C           6.1110   14.2920   15.6550 C.ar    1  UNL1        0.1214
     33 C           8.0500   11.8740   14.8000 C.ar    1  UNL1        0.1823
     34 C           9.7630   10.9260   15.8220 C.ar    1  UNL1        0.0886
     35 C           3.0870   13.5690   17.8560 C.3     1  UNL1       -0.0260
     36 C           2.7440   13.8120   19.3350 C.3     1  UNL1       -0.0281
     37 C           1.5660   12.9550   19.7930 C.3     1  UNL1        0.0820
     38 C          10.6640   10.2550   16.7860 C.3     1  UNL1       -0.0185
     39 N           3.2410   10.8170   19.6870 N.3     1  UNL1       -0.1902
     40 C           4.8640   15.4130   17.9010 C.ar    1  UNL1       -0.0583
     41 C           5.7420    9.8170   18.1880 C.ar    1  UNL1       -0.0567
     42 C           6.5050   11.9030   19.1370 C.ar    1  UNL1       -0.0567
     43 C           4.5890   10.7090   20.2640 C.3     1  UNL1        0.0421
     44 C           6.8060   12.4640   14.2520 C.3     1  UNL1        0.1502
     45 N          10.2100   11.2900   14.6140 N.ar    1  UNL1       -0.0826
     46 O           2.5720   11.7860   21.9390 O.2     1  UNL1       -0.1582
     47 O           0.9250   10.5160   20.5130 O.2     1  UNL1       -0.1582
     48 O           9.1370   11.8890   13.9780 O.2     1  UNL1       -0.3553
     49 O           6.7950   13.8600   14.5540 O.3     1  UNL1       -0.4842
     50 S           2.0250   11.4460   20.6460 S.O2    1  UNL1        0.0297
@<TRIPOS>BOND
     1    16    44    1
     2    48    45   ar
     3    48    33   ar
     4    44    49    1
     5    44     1    1
     6    44    33    1
     7    49    32    1
     8    45    34   ar
     9    33    29   ar
    10    32    27   ar
    11    32    26   ar
    12     6    27    1
    13     5    26    1
    14    34    29   ar
    15    34    38    1
    16    29    28    1
    17    27    31   ar
    18    26    23   ar
    19     3    24    1
    20    10    38    1
    21    38    20    1
    22    38    22    1
    23    28    24   ar
    24    28    25   ar
    25    24    41   ar
    26    17    35    1
    27    31    35    1
    28    31    40   ar
    29    23     2    1
    30    23    40   ar
    31     7    35    1
    32    35    36    1
    33    40    12    1
    34     4    25    1
    35    25    42   ar
    36    41    13    1
    37    41    30   ar
    38     9    37    1
    39    42    30   ar
    40    42    14    1
    41    30    43    1
    42    11    39    1
    43    36     8    1
    44    36    37    1
    45    36    18    1
    46    39    43    1
    47    39    50    1
    48    37    19    1
    49    37    50    1
    50    43    21    1
    51    43    15    1
    52    47    50    2
    53    50    46    2
