@<TRIPOS>MOLECULE
-14.97303
 50 53 0 0 0
SMALL
GASTEIGER

@<TRIPOS>ATOM
      1 H           1.4930   21.7620   28.3420 H       1  UNL1        0.0780
      2 H           1.2460   24.6700   23.1090 H       1  UNL1        0.0619
      3 H           1.2270   20.0140   23.0230 H       1  UNL1        0.0624
      4 H           3.4510   19.3670   26.6600 H       1  UNL1        0.0624
      5 H           0.7130   23.3760   25.1120 H       1  UNL1        0.0654
      6 H           4.9140   22.7860   25.8460 H       1  UNL1        0.0657
      7 H           6.3290   24.7690   24.3500 H       1  UNL1        0.0314
      8 H           6.1890   21.9620   23.9960 H       1  UNL1        0.0284
      9 H           7.9770   21.7420   22.1320 H       1  UNL1        0.0515
     10 H          -1.3660   17.3260   25.1630 H       1  UNL1        0.0294
     11 H           5.5790   19.5170   20.6010 H       1  UNL1        0.1480
     12 H           3.5780   25.0010   22.4000 H       1  UNL1        0.0620
     13 H           3.2790   19.8210   21.7190 H       1  UNL1        0.0621
     14 H           5.5220   19.2160   25.3600 H       1  UNL1        0.0621
     15 H           6.1030   18.3830   22.5650 H       1  UNL1        0.0490
     16 H           0.7300   22.8910   27.2480 H       1  UNL1        0.0780
     17 H           5.8870   24.6400   22.6630 H       1  UNL1        0.0314
     18 H           7.6100   22.9770   24.1020 H       1  UNL1        0.0284
     19 H           7.4860   23.3360   21.5770 H       1  UNL1        0.0515
     20 H           0.3480   17.2220   24.7460 H       1  UNL1        0.0294
     21 H           6.6920   19.8490   23.3100 H       1  UNL1        0.0490
     22 H          -0.7460   18.2140   23.7600 H       1  UNL1        0.0294
     23 C           2.0530   24.2640   23.7150 C.ar    1  UNL1       -0.0580
     24 C           2.1610   19.8180   23.5450 C.ar    1  UNL1       -0.0536
     25 C           3.4060   19.4670   25.5780 C.ar    1  UNL1       -0.0536
     26 C           1.7580   23.5300   24.8650 C.ar    1  UNL1       -0.0199
     27 C           4.1180   23.2070   25.2360 C.ar    1  UNL1       -0.0167
     28 C           2.1900   19.7150   24.9400 C.ar    1  UNL1       -0.0127
     29 C           0.9650   19.8510   25.7000 C.ar    1  UNL1        0.0503
     30 C           4.5740   19.5390   23.4350 C.ar    1  UNL1       -0.0319
     31 C           4.4280   23.9080   24.0630 C.ar    1  UNL1       -0.0439
     32 C           2.7910   22.9980   25.6320 C.ar    1  UNL1        0.1214
     33 C           0.6850   20.8200   26.6470 C.ar    1  UNL1        0.1823
     34 C          -0.2250   19.0750   25.6320 C.ar    1  UNL1        0.0886
     35 C           5.8590   24.0990   23.6170 C.3     1  UNL1       -0.0260
     36 C           6.6930   22.8070   23.5230 C.3     1  UNL1       -0.0281
     37 C           7.1350   22.4430   22.1080 C.3     1  UNL1        0.0820
     38 C          -0.5130   17.8970   24.7810 C.3     1  UNL1       -0.0185
     39 N           5.9880   20.0560   21.3640 N.3     1  UNL1       -0.1902
     40 C           3.3770   24.4530   23.3170 C.ar    1  UNL1       -0.0583
     41 C           3.3400   19.7130   22.7990 C.ar    1  UNL1       -0.0567
     42 C           4.5850   19.3840   24.8320 C.ar    1  UNL1       -0.0567
     43 C           5.8810   19.4510   22.6900 C.3     1  UNL1        0.0421
     44 C           1.3520   21.9900   27.2780 C.3     1  UNL1        0.1502
     45 N          -1.1540   19.5320   26.4780 N.ar    1  UNL1       -0.0826
     46 O           4.5650   22.1470   21.4520 O.2     1  UNL1       -0.1582
     47 O           6.3090   21.8380   19.6960 O.2     1  UNL1       -0.1582
     48 O          -0.5840   20.6160   27.1090 O.2     1  UNL1       -0.3553
     49 O           2.6560   22.2190   26.7480 O.3     1  UNL1       -0.4842
     50 S           5.8790   21.6940   21.0720 S.O2    1  UNL1        0.0297
@<TRIPOS>BOND
     1    47    50    2
     2    11    39    1
     3    50    39    1
     4    50    46    2
     5    50    37    1
     6    39    43    1
     7    19    37    1
     8    13    41    1
     9    37     9    1
    10    37    36    1
    11    12    40    1
    12    15    43    1
    13    17    35    1
    14    43    21    1
    15    43    30    1
    16    41    30   ar
    17    41    24   ar
    18     3    24    1
    19     2    23    1
    20    40    23   ar
    21    40    31   ar
    22    30    42   ar
    23    36    35    1
    24    36     8    1
    25    36    18    1
    26    24    28   ar
    27    35    31    1
    28    35     7    1
    29    23    26   ar
    30    22    38    1
    31    31    27   ar
    32    20    38    1
    33    38    10    1
    34    38    34    1
    35    42    14    1
    36    42    25   ar
    37    26     5    1
    38    26    32   ar
    39    28    25   ar
    40    28    29    1
    41    27    32   ar
    42    27     6    1
    43    25     4    1
    44    34    29   ar
    45    34    45   ar
    46    32    49    1
    47    29    33   ar
    48    45    48   ar
    49    33    48   ar
    50    33    44    1
    51    49    44    1
    52    16    44    1
    53    44     1    1
