@<TRIPOS>MOLECULE
-29.53571
 50 53 0 0 0
SMALL
GASTEIGER

@<TRIPOS>ATOM
      1 H          -1.6160   13.6720   26.5250 H       1  UNL1        0.0780
      2 H          -5.8260   14.8520   26.2670 H       1  UNL1        0.0619
      3 H           1.4810   13.6290   22.2920 H       1  UNL1        0.0624
      4 H          -0.5610   15.5390   25.5820 H       1  UNL1        0.0624
      5 H          -3.8970   13.4220   26.8000 H       1  UNL1        0.0654
      6 H          -3.0090   13.0320   22.6260 H       1  UNL1        0.0657
      7 H          -5.3560   15.7500   21.6510 H       1  UNL1        0.0314
      8 H          -4.5370   14.6550   19.5920 H       1  UNL1        0.0284
      9 H          -2.0110   14.7120   20.0230 H       1  UNL1        0.0515
     10 H           4.2720   12.6420   25.1200 H       1  UNL1        0.0294
     11 H          -0.6930   17.1020   19.4300 H       1  UNL1        0.1480
     12 H          -6.3470   15.4400   23.9320 H       1  UNL1        0.0620
     13 H           0.9060   15.5190   20.8420 H       1  UNL1        0.0621
     14 H          -1.2040   17.3800   24.1150 H       1  UNL1        0.0621
     15 H           0.3070   18.3030   21.2240 H       1  UNL1        0.0490
     16 H          -1.6880   11.9210   26.8240 H       1  UNL1        0.0780
     17 H          -6.0040   14.1310   21.4260 H       1  UNL1        0.0314
     18 H          -3.8560   13.3380   20.5240 H       1  UNL1        0.0284
     19 H          -2.3740   15.1380   21.7100 H       1  UNL1        0.0515
     20 H           3.5730   14.1060   24.4220 H       1  UNL1        0.0294
     21 H          -1.2360   18.4530   22.0230 H       1  UNL1        0.0490
     22 H           3.5320   12.5810   23.5110 H       1  UNL1        0.0294
     23 C          -5.1960   14.4740   25.4660 C.ar    1  UNL1       -0.0580
     24 C           0.9050   14.4530   22.7080 C.ar    1  UNL1       -0.0536
     25 C          -0.2490   15.5040   24.5410 C.ar    1  UNL1       -0.0536
     26 C          -4.0970   13.6690   25.7630 C.ar    1  UNL1       -0.0199
     27 C          -3.6320   13.4670   23.4020 C.ar    1  UNL1       -0.0167
     28 C           0.4970   14.4290   24.0480 C.ar    1  UNL1       -0.0127
     29 C           0.8710   13.3170   24.9060 C.ar    1  UNL1        0.0503
     30 C          -0.2070   16.5890   22.3610 C.ar    1  UNL1       -0.0319
     31 C          -4.7080   14.3070   23.0860 C.ar    1  UNL1       -0.0439
     32 C          -3.2930   13.1930   24.7300 C.ar    1  UNL1        0.1214
     33 C           0.0180   12.6100   25.7340 C.ar    1  UNL1        0.1823
     34 C           2.1330   12.6890   25.1080 C.ar    1  UNL1        0.0886
     35 C          -5.0890   14.6860   21.6700 C.3     1  UNL1       -0.0260
     36 C          -4.0700   14.4130   20.5540 C.3     1  UNL1       -0.0281
     37 C          -2.7500   15.1700   20.6900 C.3     1  UNL1        0.0820
     38 C           3.4460   13.0220   24.5090 C.3     1  UNL1       -0.0185
     39 N          -1.2600   17.3700   20.2300 N.3     1  UNL1       -0.1902
     40 C          -5.4920   14.7990   24.1400 C.ar    1  UNL1       -0.0583
     41 C           0.5690   15.5280   21.8760 C.ar    1  UNL1       -0.0567
     42 C          -0.6050   16.5680   23.7050 C.ar    1  UNL1       -0.0567
     43 C          -0.6030   17.7450   21.4770 C.3     1  UNL1        0.0421
     44 C          -1.4210   12.6870   26.0870 C.3     1  UNL1        0.1502
     45 N           2.0430   11.6810   25.9840 N.ar    1  UNL1       -0.0826
     46 O          -3.2400   16.9180   18.8070 O.2     1  UNL1       -0.1582
     47 O          -3.5740   17.6380   21.2060 O.2     1  UNL1       -0.1582
     48 O           0.7210   11.6350   26.3720 O.2     1  UNL1       -0.3553
     49 O          -2.1620   12.4410   24.8920 O.3     1  UNL1       -0.4842
     50 S          -2.8560   16.8860   20.2020 S.O2    1  UNL1        0.0297
@<TRIPOS>BOND
     1    46    50    2
     2    11    39    1
     3     8    36    1
     4     9    37    1
     5    50    39    1
     6    50    37    1
     7    50    47    2
     8    39    43    1
     9    18    36    1
    10    36    37    1
    11    36    35    1
    12    37    19    1
    13    13    41    1
    14    15    43    1
    15    17    35    1
    16    43    21    1
    17    43    30    1
    18     7    35    1
    19    35    31    1
    20    41    30   ar
    21    41    24   ar
    22     3    24    1
    23    30    42   ar
    24     6    27    1
    25    24    28   ar
    26    31    27   ar
    27    31    40   ar
    28    27    32   ar
    29    22    38    1
    30    42    14    1
    31    42    25   ar
    32    12    40    1
    33    28    25   ar
    34    28    29    1
    35    40    23   ar
    36    20    38    1
    37    38    34    1
    38    38    10    1
    39    25     4    1
    40    32    49    1
    41    32    26   ar
    42    49    44    1
    43    29    34   ar
    44    29    33   ar
    45    34    45   ar
    46    23    26   ar
    47    23     2    1
    48    33    44    1
    49    33    48   ar
    50    26     5    1
    51    45    48   ar
    52    44     1    1
    53    44    16    1
