@<TRIPOS>MOLECULE
-29.99013
 50 53 0 0 0
SMALL
GASTEIGER

@<TRIPOS>ATOM
      1 H           8.1870   17.1360   16.5330 H       1  UNL1        0.0780
      2 H          10.9300   12.0090   16.3220 H       1  UNL1        0.0619
      3 H           5.0340   18.5350   18.2910 H       1  UNL1        0.0624
      4 H           5.1670   14.4590   16.8860 H       1  UNL1        0.0624
      5 H           9.1530   13.1580   15.0320 H       1  UNL1        0.0654
      6 H           8.6110   15.9480   18.2510 H       1  UNL1        0.0657
      7 H          11.3380   15.5950   19.8740 H       1  UNL1        0.0314
      8 H           9.1290   16.4870   20.4550 H       1  UNL1        0.0284
      9 H           8.4590   13.5900   21.2320 H       1  UNL1        0.0515
     10 H           2.3690   18.1340   14.4860 H       1  UNL1        0.0294
     11 H           5.4720   13.7860   22.8290 H       1  UNL1        0.1480
     12 H          11.5470   12.8090   18.5700 H       1  UNL1        0.0620
     13 H           4.7650   17.7320   20.5970 H       1  UNL1        0.0621
     14 H           4.8740   13.6530   19.1950 H       1  UNL1        0.0621
     15 H           3.7080   14.4980   21.4940 H       1  UNL1        0.0490
     16 H           8.4980   16.8460   14.8110 H       1  UNL1        0.0780
     17 H          10.9130   14.0150   20.5190 H       1  UNL1        0.0314
     18 H           9.8650   15.7100   21.8410 H       1  UNL1        0.0284
     19 H           7.5870   14.6550   20.1050 H       1  UNL1        0.0515
     20 H           2.7600   18.7190   16.1130 H       1  UNL1        0.0294
     21 H           4.3420   15.9730   22.1610 H       1  UNL1        0.0490
     22 H           2.3950   17.0020   15.8450 H       1  UNL1        0.0294
     23 C          10.4300   12.8770   16.7420 C.ar    1  UNL1       -0.0580
     24 C           4.9970   17.4640   18.4780 C.ar    1  UNL1       -0.0536
     25 C           5.0710   15.1810   17.6940 C.ar    1  UNL1       -0.0536
     26 C           9.4370   13.5270   16.0140 C.ar    1  UNL1       -0.0199
     27 C           9.1430   15.1040   17.8240 C.ar    1  UNL1       -0.0167
     28 C           5.1150   16.5530   17.4260 C.ar    1  UNL1       -0.0127
     29 C           5.2650   17.0320   16.0720 C.ar    1  UNL1        0.0503
     30 C           4.7840   15.6320   20.0660 C.ar    1  UNL1       -0.0319
     31 C          10.1150   14.4380   18.5840 C.ar    1  UNL1       -0.0439
     32 C           8.8100   14.6530   16.5430 C.ar    1  UNL1        0.1214
     33 C           6.4430   17.0270   15.3580 C.ar    1  UNL1        0.1823
     34 C           4.3250   17.6190   15.1880 C.ar    1  UNL1        0.0886
     35 C          10.5110   14.8800   19.9750 C.3     1  UNL1       -0.0260
     36 C           9.4250   15.5090   20.8560 C.3     1  UNL1       -0.0281
     37 C           8.1900   14.6280   21.0130 C.3     1  UNL1        0.0820
     38 C           2.8860   17.8830   15.4180 C.3     1  UNL1       -0.0185
     39 N           5.7150   14.3780   22.0340 N.3     1  UNL1       -0.1902
     40 C          10.7710   13.3340   18.0150 C.ar    1  UNL1       -0.0583
     41 C           4.8380   17.0060   19.7880 C.ar    1  UNL1       -0.0567
     42 C           4.9040   14.7240   19.0050 C.ar    1  UNL1       -0.0567
     43 C           4.5920   15.1490   21.4820 C.3     1  UNL1        0.0421
     44 C           7.8320   16.6020   15.6460 C.3     1  UNL1        0.1502
     45 N           4.8950   17.9490   14.0220 N.ar    1  UNL1       -0.0826
     46 O           7.6520   14.6040   23.5800 O.2     1  UNL1       -0.1582
     47 O           6.9190   16.6150   22.2480 O.2     1  UNL1       -0.1582
     48 O           6.2210   17.5730   14.1310 O.2     1  UNL1       -0.3553
     49 O           7.7960   15.1820   15.7970 O.3     1  UNL1       -0.4842
     50 S           7.1520   15.1940   22.3570 S.O2    1  UNL1        0.0297
@<TRIPOS>BOND
     1    45    48   ar
     2    45    34   ar
     3    48    33   ar
     4    10    38    1
     5    16    44    1
     6     5    26    1
     7    34    38    1
     8    34    29   ar
     9    33    44    1
    10    33    29   ar
    11    38    22    1
    12    38    20    1
    13    44    49    1
    14    44     1    1
    15    49    32    1
    16    26    32   ar
    17    26    23   ar
    18    29    28    1
    19     2    23    1
    20    32    27   ar
    21    23    40   ar
    22     4    25    1
    23    28    25   ar
    24    28    24   ar
    25    25    42   ar
    26    27     6    1
    27    27    31   ar
    28    40    12    1
    29    40    31   ar
    30     3    24    1
    31    24    41   ar
    32    31    35    1
    33    42    14    1
    34    42    30   ar
    35    41    30   ar
    36    41    13    1
    37     7    35    1
    38    35    17    1
    39    35    36    1
    40    30    43    1
    41    19    37    1
    42     8    36    1
    43    36    37    1
    44    36    18    1
    45    37     9    1
    46    37    50    1
    47    43    15    1
    48    43    39    1
    49    43    21    1
    50    39    50    1
    51    39    11    1
    52    47    50    2
    53    50    46    2
