@<TRIPOS>MOLECULE
-24.40652
 50 53 0 0 0
SMALL
GASTEIGER

@<TRIPOS>ATOM
      1 H           8.6800   14.4720   13.5030 H       1  UNL1        0.0780
      2 H          10.3130   11.2760   16.2270 H       1  UNL1        0.0619
      3 H          10.2360   16.4800   11.6460 H       1  UNL1        0.0624
      4 H           9.0260   18.7490   15.1080 H       1  UNL1        0.0624
      5 H           8.5860   12.5810   15.0690 H       1  UNL1        0.0654
      6 H           9.9080   16.1390   17.0890 H       1  UNL1        0.0657
      7 H          11.9200   14.3910   19.4800 H       1  UNL1        0.0314
      8 H          13.7640   14.1770   17.7460 H       1  UNL1        0.0284
      9 H          14.3840   16.8620   17.2710 H       1  UNL1        0.0515
     10 H           6.2510   19.8580   11.4870 H       1  UNL1        0.0294
     11 H          15.4260   17.0210   14.5250 H       1  UNL1        0.1480
     12 H          11.8510   12.3580   17.8210 H       1  UNL1        0.0620
     13 H          12.5950   16.7920   12.2640 H       1  UNL1        0.0621
     14 H          11.3810   19.0770   15.7210 H       1  UNL1        0.0621
     15 H          13.6950   18.6250   15.4030 H       1  UNL1        0.0490
     16 H           7.0210   14.2110   14.1250 H       1  UNL1        0.0780
     17 H          11.5230   15.9730   18.8570 H       1  UNL1        0.0314
     18 H          13.9610   15.4480   18.9390 H       1  UNL1        0.0284
     19 H          12.6470   16.8410   16.8840 H       1  UNL1        0.0515
     20 H           7.8860   19.4460   10.9440 H       1  UNL1        0.0294
     21 H          14.0780   18.7710   13.7070 H       1  UNL1        0.0490
     22 H           7.6340   20.1620   12.5490 H       1  UNL1        0.0294
     23 C          10.2280   12.3430   16.4160 C.ar    1  UNL1       -0.0580
     24 C          10.4800   17.0660   12.5290 C.ar    1  UNL1       -0.0536
     25 C           9.8060   18.3380   14.4710 C.ar    1  UNL1       -0.0536
     26 C           9.2550   13.0920   15.7520 C.ar    1  UNL1       -0.0199
     27 C          10.0100   15.0730   16.9090 C.ar    1  UNL1       -0.0167
     28 C           9.4710   17.5980   13.3340 C.ar    1  UNL1       -0.0127
     29 C           8.0860   17.3320   13.0330 C.ar    1  UNL1        0.0503
     30 C          12.1660   17.9460   14.0430 C.ar    1  UNL1       -0.0319
     31 C          10.9940   14.3310   17.5770 C.ar    1  UNL1       -0.0439
     32 C           9.1580   14.4630   15.9840 C.ar    1  UNL1        0.1214
     33 C           7.4370   16.1680   13.3820 C.ar    1  UNL1        0.1823
     34 C           7.0930   18.1090   12.3920 C.ar    1  UNL1        0.0886
     35 C          11.9200   14.9930   18.5620 C.3     1  UNL1       -0.0260
     36 C          13.3640   15.1440   18.0690 C.3     1  UNL1       -0.0281
     37 C          13.5380   16.2210   16.9960 C.3     1  UNL1        0.0820
     38 C           7.2200   19.4650   11.8120 C.3     1  UNL1       -0.0185
     39 N          14.4160   16.8850   14.5060 N.3     1  UNL1       -0.1902
     40 C          11.0960   12.9590   17.3180 C.ar    1  UNL1       -0.0583
     41 C          11.8190   17.2470   12.8780 C.ar    1  UNL1       -0.0567
     42 C          11.1460   18.5140   14.8210 C.ar    1  UNL1       -0.0567
     43 C          13.6080   18.1050   14.4420 C.3     1  UNL1        0.0421
     44 C           7.8530   14.9210   14.0670 C.3     1  UNL1        0.1502
     45 N           5.9250   17.4540   12.3380 N.ar    1  UNL1       -0.0826
     46 O          15.1820   14.7780   15.5330 O.2     1  UNL1       -0.1582
     47 O          12.7900   14.9560   14.7760 O.2     1  UNL1       -0.1582
     48 O           6.1450   16.2380   12.9630 O.2     1  UNL1       -0.3553
     49 O           8.2470   15.2940   15.3900 O.3     1  UNL1       -0.4842
     50 S          13.9570   15.5370   15.3890 S.O2    1  UNL1        0.0297
@<TRIPOS>BOND
     1    20    38    1
     2    10    38    1
     3     3    24    1
     4    38    34    1
     5    38    22    1
     6    13    41    1
     7    45    34   ar
     8    45    48   ar
     9    34    29   ar
    10    24    41   ar
    11    24    28   ar
    12    41    30   ar
    13    48    33   ar
    14    29    28    1
    15    29    33   ar
    16    28    25   ar
    17    33    44    1
    18     1    44    1
    19    21    43    1
    20    30    43    1
    21    30    42   ar
    22    44    16    1
    23    44    49    1
    24    43    39    1
    25    43    15    1
    26    25    42   ar
    27    25     4    1
    28    39    11    1
    29    39    50    1
    30    47    50    2
    31    42    14    1
    32     5    26    1
    33    50    46    2
    34    50    37    1
    35    49    32    1
    36    26    32   ar
    37    26    23   ar
    38    32    27   ar
    39     2    23    1
    40    23    40   ar
    41    19    37    1
    42    27     6    1
    43    27    31   ar
    44    37     9    1
    45    37    36    1
    46    40    31   ar
    47    40    12    1
    48    31    35    1
    49     8    36    1
    50    36    35    1
    51    36    18    1
    52    35    17    1
    53    35     7    1
