@<TRIPOS>MOLECULE
-33.60590
 50 53 0 0 0
SMALL
GASTEIGER

@<TRIPOS>ATOM
      1 H           9.1530   14.8130   13.5840 H       1  UNL1        0.0780
      2 H          10.7920   11.4670   16.1720 H       1  UNL1        0.0619
      3 H          10.5560   17.4930   11.9920 H       1  UNL1        0.0624
      4 H           8.7970   18.7230   15.7310 H       1  UNL1        0.0624
      5 H           9.0300   12.7130   14.9930 H       1  UNL1        0.0654
      6 H           9.8850   16.1880   17.3770 H       1  UNL1        0.0657
      7 H          12.1160   14.4420   19.6690 H       1  UNL1        0.0314
      8 H          13.9010   14.7840   17.9720 H       1  UNL1        0.0284
      9 H          12.4500   17.4290   17.4340 H       1  UNL1        0.0515
     10 H           6.2130   20.0580   11.8800 H       1  UNL1        0.0294
     11 H          14.4920   17.5920   14.4660 H       1  UNL1        0.1480
     12 H          12.1350   12.5510   17.9370 H       1  UNL1        0.0620
     13 H          12.7680   18.2090   12.7920 H       1  UNL1        0.0621
     14 H          11.0040   19.4460   16.5380 H       1  UNL1        0.0621
     15 H          13.3410   19.7750   16.2120 H       1  UNL1        0.0490
     16 H           7.4880   14.2920   13.9910 H       1  UNL1        0.0780
     17 H          11.3840   15.9790   19.2660 H       1  UNL1        0.0314
     18 H          13.8400   16.1030   19.1300 H       1  UNL1        0.0284
     19 H          12.7860   16.1240   16.2520 H       1  UNL1        0.0515
     20 H           7.9120   19.8920   11.4020 H       1  UNL1        0.0294
     21 H          13.8280   20.0320   14.5540 H       1  UNL1        0.0490
     22 H           7.4940   20.4050   13.0490 H       1  UNL1        0.0294
     23 C          10.6030   12.5060   16.4300 C.ar    1  UNL1       -0.0580
     24 C          10.6510   17.9150   12.9900 C.ar    1  UNL1       -0.0536
     25 C           9.6660   18.6110   15.0840 C.ar    1  UNL1       -0.0536
     26 C           9.6090   13.2210   15.7570 C.ar    1  UNL1       -0.0199
     27 C          10.0970   15.1520   17.1190 C.ar    1  UNL1       -0.0167
     28 C           9.5280   18.0520   13.8100 C.ar    1  UNL1       -0.0127
     29 C           8.2310   17.6260   13.3440 C.ar    1  UNL1        0.0503
     30 C          12.0590   18.8640   14.7340 C.ar    1  UNL1       -0.0319
     31 C          11.1070   14.4490   17.7890 C.ar    1  UNL1       -0.0439
     32 C           9.3710   14.5540   16.0870 C.ar    1  UNL1        0.1214
     33 C           7.7210   16.3550   13.5010 C.ar    1  UNL1        0.1823
     34 C           7.2100   18.3310   12.6610 C.ar    1  UNL1        0.0886
     35 C          11.9440   15.1380   18.8380 C.3     1  UNL1       -0.0260
     36 C          13.2920   15.6330   18.3040 C.3     1  UNL1       -0.0281
     37 C          13.1400   16.6290   17.1560 C.3     1  UNL1        0.0820
     38 C           7.2050   19.7460   12.2250 C.3     1  UNL1       -0.0185
     39 N          14.3590   18.1630   15.2980 N.3     1  UNL1       -0.1902
     40 C          11.3560   13.1190   17.4330 C.ar    1  UNL1       -0.0583
     41 C          11.9070   18.3200   13.4490 C.ar    1  UNL1       -0.0567
     42 C          10.9220   19.0160   15.5410 C.ar    1  UNL1       -0.0567
     43 C          13.4210   19.2780   15.2390 C.3     1  UNL1        0.0421
     44 C           8.2250   15.0960   14.0970 C.3     1  UNL1        0.1502
     45 N           6.1600   17.5400   12.4080 N.ar    1  UNL1       -0.0826
     46 O          14.9920   18.4140   17.7240 O.2     1  UNL1       -0.1582
     47 O          15.6470   16.3590   16.4080 O.2     1  UNL1       -0.1582
     48 O           6.4820   16.3040   12.9390 O.2     1  UNL1       -0.3553
     49 O           8.4430   15.3570   15.4850 O.3     1  UNL1       -0.4842
     50 S          14.6980   17.3990   16.7380 S.O2    1  UNL1        0.0297
@<TRIPOS>BOND
     1    20    38    1
     2    10    38    1
     3     3    24    1
     4    38    34    1
     5    38    22    1
     6    45    34   ar
     7    45    48   ar
     8    34    29   ar
     9    13    41    1
    10    48    33   ar
    11    24    41   ar
    12    24    28   ar
    13    29    33   ar
    14    29    28    1
    15    41    30   ar
    16    33    44    1
    17     1    44    1
    18    28    25   ar
    19    16    44    1
    20    44    49    1
    21    11    39    1
    22    21    43    1
    23    30    43    1
    24    30    42   ar
    25     5    26    1
    26    25    42   ar
    27    25     4    1
    28    43    39    1
    29    43    15    1
    30    39    50    1
    31    49    32    1
    32    42    14    1
    33    26    32   ar
    34    26    23   ar
    35    32    27   ar
    36     2    23    1
    37    19    37    1
    38    47    50    2
    39    23    40   ar
    40    50    37    1
    41    50    46    2
    42    27     6    1
    43    27    31   ar
    44    37     9    1
    45    37    36    1
    46    40    31   ar
    47    40    12    1
    48    31    35    1
    49     8    36    1
    50    36    35    1
    51    36    18    1
    52    35    17    1
    53    35     7    1
