@<TRIPOS>MOLECULE
-29.95455
 50 53 0 0 0
SMALL
GASTEIGER

@<TRIPOS>ATOM
      1 H           8.5840   22.8640   12.9450 H       1  UNL1        0.0780
      2 H           9.4990   26.0940   17.6630 H       1  UNL1        0.0619
      3 H          12.7590   24.6140   13.9410 H       1  UNL1        0.0624
      4 H          10.6090   21.4960   11.8740 H       1  UNL1        0.0624
      5 H           8.9400   26.5000   15.2830 H       1  UNL1        0.0654
      6 H           7.7540   22.3920   14.8610 H       1  UNL1        0.0657
      7 H           7.9780   20.8770   16.5970 H       1  UNL1        0.0314
      8 H           9.3830   19.9360   18.3140 H       1  UNL1        0.0284
      9 H          11.1520   21.9890   16.8890 H       1  UNL1        0.0515
     10 H          13.0650   25.8900    9.8010 H       1  UNL1        0.0294
     11 H          13.9490   21.3160   17.0780 H       1  UNL1        0.1480
     12 H           9.2220   23.8460   18.6390 H       1  UNL1        0.0620
     13 H          13.8660   22.9290   15.3330 H       1  UNL1        0.0621
     14 H          11.6790   19.8090   13.2970 H       1  UNL1        0.0621
     15 H          14.5440   20.1110   15.0170 H       1  UNL1        0.0490
     16 H           7.5800   23.8350   11.8810 H       1  UNL1        0.0780
     17 H           7.5430   21.6000   18.1340 H       1  UNL1        0.0314
     18 H           9.8720   21.5100   18.9100 H       1  UNL1        0.0284
     19 H          10.5110   20.5260   16.0760 H       1  UNL1        0.0515
     20 H          13.4630   24.3580   10.5880 H       1  UNL1        0.0294
     21 H          13.0510   19.2050   15.1300 H       1  UNL1        0.0490
     22 H          13.4680   25.8650   11.5270 H       1  UNL1        0.0294
     23 C           9.1420   25.2760   17.0430 C.ar    1  UNL1       -0.0580
     24 C          12.5190   23.5630   13.7910 C.ar    1  UNL1       -0.0536
     25 C          11.3050   21.8210   12.6450 C.ar    1  UNL1       -0.0536
     26 C           8.8290   25.5040   15.7050 C.ar    1  UNL1       -0.0199
     27 C           8.1820   23.1930   15.4560 C.ar    1  UNL1       -0.0167
     28 C          11.5920   23.1780   12.8180 C.ar    1  UNL1       -0.0127
     29 C          10.9650   24.1770   11.9810 C.ar    1  UNL1        0.0503
     30 C          12.8370   21.2390   14.4430 C.ar    1  UNL1       -0.0319
     31 C           8.5120   22.9450   16.7990 C.ar    1  UNL1       -0.0439
     32 C           8.3650   24.4620   14.9040 C.ar    1  UNL1        0.1214
     33 C           9.6120   24.4340   11.9260 C.ar    1  UNL1        0.1823
     34 C          11.5310   25.1150   11.0780 C.ar    1  UNL1        0.0886
     35 C           8.3360   21.5610   17.3770 C.3     1  UNL1       -0.0260
     36 C           9.6040   20.9630   17.9980 C.3     1  UNL1       -0.0281
     37 C          10.7890   20.9680   17.0360 C.3     1  UNL1        0.0820
     38 C          12.9570   25.3180   10.7280 C.3     1  UNL1       -0.0185
     39 N          13.4420   20.5040   16.7360 N.3     1  UNL1       -0.1902
     40 C           8.9840   24.0020   17.5890 C.ar    1  UNL1       -0.0583
     41 C          13.1440   22.6010   14.5900 C.ar    1  UNL1       -0.0567
     42 C          11.9210   20.8600   13.4510 C.ar    1  UNL1       -0.0567
     43 C          13.4910   20.1910   15.3130 C.3     1  UNL1        0.0421
     44 C           8.4100   23.8850   12.5960 C.3     1  UNL1        0.1502
     45 N          10.5870   25.8690   10.5030 N.ar    1  UNL1       -0.0826
     46 O          12.4670   20.5090   19.0100 O.2     1  UNL1       -0.1582
     47 O          11.9180   18.6180   17.4270 O.2     1  UNL1       -0.1582
     48 O           9.3870   25.4410   11.0380 O.2     1  UNL1       -0.3553
     49 O           8.0280   24.8020   13.6240 O.3     1  UNL1       -0.4842
     50 S          12.1620   20.0190   17.6830 S.O2    1  UNL1        0.0297
@<TRIPOS>BOND
     1    10    38    1
     2    45    48   ar
     3    45    34   ar
     4    20    38    1
     5    38    34    1
     6    38    22    1
     7    48    33   ar
     8    34    29   ar
     9     4    25    1
    10    16    44    1
    11    33    29   ar
    12    33    44    1
    13    29    28    1
    14    44     1    1
    15    44    49    1
    16    25    28   ar
    17    25    42   ar
    18    28    24   ar
    19    14    42    1
    20    42    30   ar
    21    49    32    1
    22    24     3    1
    23    24    41   ar
    24    30    41   ar
    25    30    43    1
    26    41    13    1
    27     6    27    1
    28    32    27   ar
    29    32    26   ar
    30    15    43    1
    31    21    43    1
    32     5    26    1
    33    43    39    1
    34    27    31   ar
    35    26    23   ar
    36    19    37    1
    37     7    35    1
    38    39    11    1
    39    39    50    1
    40    31    35    1
    41    31    40   ar
    42     9    37    1
    43    37    50    1
    44    37    36    1
    45    23    40   ar
    46    23     2    1
    47    35    36    1
    48    35    17    1
    49    47    50    2
    50    40    12    1
    51    50    46    2
    52    36     8    1
    53    36    18    1
