@<TRIPOS>MOLECULE
-16.26797
 50 53 0 0 0
SMALL
GASTEIGER

@<TRIPOS>ATOM
      1 H           9.7140   15.4110   13.1200 H       1  UNL1        0.0780
      2 H          10.6100   10.7490   14.7110 H       1  UNL1        0.0619
      3 H           9.8930   17.9200   11.3750 H       1  UNL1        0.0624
      4 H           9.5890   18.9800   15.5460 H       1  UNL1        0.0624
      5 H           8.7920   12.4250   14.5510 H       1  UNL1        0.0654
      6 H          11.4590   15.4790   15.9380 H       1  UNL1        0.0657
      7 H          14.1650   13.1180   16.7510 H       1  UNL1        0.0314
      8 H          14.1970   13.7870   13.9950 H       1  UNL1        0.0284
      9 H          15.7760   15.6170   13.8070 H       1  UNL1        0.0515
     10 H           5.5830   20.1040   13.3770 H       1  UNL1        0.0294
     11 H          15.4080   18.3440   14.3970 H       1  UNL1        0.1480
     12 H          12.8720   11.4290   15.4280 H       1  UNL1        0.0620
     13 H          12.2680   18.5510   11.3850 H       1  UNL1        0.0621
     14 H          11.9530   19.6300   15.5540 H       1  UNL1        0.0621
     15 H          14.0260   20.0550   14.3100 H       1  UNL1        0.0490
     16 H           8.2250   14.4410   13.2700 H       1  UNL1        0.0780
     17 H          13.7150   14.7960   16.7910 H       1  UNL1        0.0314
     18 H          15.5640   13.5200   15.0570 H       1  UNL1        0.0284
     19 H          15.7530   15.9250   15.5610 H       1  UNL1        0.0515
     20 H           7.1010   20.3540   12.5010 H       1  UNL1        0.0294
     21 H          14.1460   19.7280   12.5960 H       1  UNL1        0.0490
     22 H           7.0680   20.4610   14.2730 H       1  UNL1        0.0294
     23 C          10.8050   11.7870   14.9660 C.ar    1  UNL1       -0.0580
     24 C          10.3290   18.3310   12.2830 C.ar    1  UNL1       -0.0536
     25 C          10.1560   18.9300   14.6190 C.ar    1  UNL1       -0.0536
     26 C           9.7830   12.7300   14.8700 C.ar    1  UNL1       -0.0199
     27 C          11.3030   14.4410   15.6610 C.ar    1  UNL1       -0.0167
     28 C           9.5800   18.4050   13.4610 C.ar    1  UNL1       -0.0127
     29 C           8.2470   17.8590   13.5120 C.ar    1  UNL1        0.0503
     30 C          12.2850   19.1500   13.4650 C.ar    1  UNL1       -0.0319
     31 C          12.3470   13.5080   15.7320 C.ar    1  UNL1       -0.0439
     32 C          10.0460   14.0600   15.1900 C.ar    1  UNL1        0.1214
     33 C           7.9690   16.5140   13.6300 C.ar    1  UNL1        0.1823
     34 C           6.9760   18.4820   13.5010 C.ar    1  UNL1        0.0886
     35 C          13.7460   13.9230   16.1310 C.3     1  UNL1       -0.0260
     36 C          14.6710   14.1420   14.9190 C.3     1  UNL1       -0.0281
     37 C          15.1570   15.5810   14.7100 C.3     1  UNL1        0.0820
     38 C           6.6630   19.9260   13.4090 C.3     1  UNL1       -0.0185
     39 N          14.6030   18.0870   13.8250 N.3     1  UNL1       -0.1902
     40 C          12.0820   12.1760   15.3800 C.ar    1  UNL1       -0.0583
     41 C          11.6760   18.7030   12.2840 C.ar    1  UNL1       -0.0567
     42 C          11.5000   19.3060   14.6190 C.ar    1  UNL1       -0.0567
     43 C          13.7850   19.3080   13.5430 C.3     1  UNL1        0.0421
     44 C           8.7890   15.2790   13.6960 C.3     1  UNL1        0.1502
     45 N           5.9920   17.5770   13.5800 N.ar    1  UNL1       -0.0826
     46 O          12.9460   16.1960   13.4640 O.2     1  UNL1       -0.1582
     47 O          13.3680   17.1440   15.7890 O.2     1  UNL1       -0.1582
     48 O           6.6180   16.3450   13.6670 O.2     1  UNL1       -0.3553
     49 O           9.0770   15.0250   15.0790 O.3     1  UNL1       -0.4842
     50 S          13.8210   16.7390   14.4760 S.O2    1  UNL1        0.0297
@<TRIPOS>BOND
     1     3    24    1
     2    13    41    1
     3    24    41   ar
     4    24    28   ar
     5    41    30   ar
     6    20    38    1
     7    21    43    1
     8     1    44    1
     9    16    44    1
    10    10    38    1
    11    38    34    1
    12    38    22    1
    13    28    29    1
    14    28    25   ar
    15    46    50    2
    16    30    43    1
    17    30    42   ar
    18    34    29   ar
    19    34    45   ar
    20    29    33   ar
    21    43    39    1
    22    43    15    1
    23    45    48   ar
    24    33    48   ar
    25    33    44    1
    26    44    49    1
    27     9    37    1
    28    39    11    1
    29    39    50    1
    30     8    36    1
    31    50    37    1
    32    50    47    2
    33     5    26    1
    34    42    25   ar
    35    42    14    1
    36    25     4    1
    37    37    36    1
    38    37    19    1
    39     2    23    1
    40    26    23   ar
    41    26    32   ar
    42    36    18    1
    43    36    35    1
    44    23    40   ar
    45    49    32    1
    46    32    27   ar
    47    40    12    1
    48    40    31   ar
    49    27    31   ar
    50    27     6    1
    51    31    35    1
    52    35     7    1
    53    35    17    1
