@<TRIPOS>MOLECULE
-16.68055
 50 53 0 0 0
SMALL
GASTEIGER

@<TRIPOS>ATOM
      1 H          -9.0640   10.8850   12.0770 H       1  UNL1        0.0780
      2 H          -7.7540    6.2100   13.3340 H       1  UNL1        0.0619
      3 H          -7.3190   14.5090   14.9360 H       1  UNL1        0.0624
      4 H          -7.8280   12.8570   10.9830 H       1  UNL1        0.0624
      5 H          -9.4510    7.8910   14.0180 H       1  UNL1        0.0654
      6 H          -6.5250   10.9970   13.6440 H       1  UNL1        0.0657
      7 H          -4.5510   10.5600   12.4020 H       1  UNL1        0.0314
      8 H          -3.8070    9.1920   14.7410 H       1  UNL1        0.0284
      9 H          -2.1630   10.7820   12.6860 H       1  UNL1        0.0515
     10 H         -10.8010   16.6500   13.6320 H       1  UNL1        0.0294
     11 H          -1.7440   13.5930   13.7810 H       1  UNL1        0.1480
     12 H          -5.4680    6.9240   12.7140 H       1  UNL1        0.0620
     13 H          -4.8900   14.4590   14.6470 H       1  UNL1        0.0621
     14 H          -5.3950   12.7600   10.7110 H       1  UNL1        0.0621
     15 H          -3.0860   14.3380   12.0740 H       1  UNL1        0.0490
     16 H         -10.6020   10.4550   12.8450 H       1  UNL1        0.0780
     17 H          -4.1830    8.9920   11.7520 H       1  UNL1        0.0314
     18 H          -2.8720    8.3570   13.5140 H       1  UNL1        0.0284
     19 H          -1.4090   10.0880   14.1190 H       1  UNL1        0.0515
     20 H          -9.1790   16.4520   12.9560 H       1  UNL1        0.0294
     21 H          -3.2250   12.6150   11.8030 H       1  UNL1        0.0490
     22 H          -9.4410   16.2680   14.7030 H       1  UNL1        0.0294
     23 C          -7.4890    7.2640   13.3750 C.ar    1  UNL1       -0.0580
     24 C          -6.9110   14.1490   13.9940 C.ar    1  UNL1       -0.0536
     25 C          -7.1930   13.2060   11.7930 C.ar    1  UNL1       -0.0536
     26 C          -8.4450    8.2060   13.7600 C.ar    1  UNL1       -0.0199
     27 C          -6.7900    9.9500   13.5320 C.ar    1  UNL1       -0.0167
     28 C          -7.7530   13.6630   12.9900 C.ar    1  UNL1       -0.0127
     29 C          -9.1830   13.6050   13.2110 C.ar    1  UNL1        0.0503
     30 C          -4.9490   13.5590   12.6780 C.ar    1  UNL1       -0.0319
     31 C          -5.8380    9.0210   13.0950 C.ar    1  UNL1       -0.0439
     32 C          -8.0930    9.5490   13.8120 C.ar    1  UNL1        0.1214
     33 C          -9.9380   12.4480   13.2130 C.ar    1  UNL1        0.1823
     34 C         -10.1150   14.6250   13.5360 C.ar    1  UNL1        0.0886
     35 C          -4.4740    9.5040   12.6790 C.3     1  UNL1       -0.0260
     36 C          -3.3850    9.3010   13.7350 C.3     1  UNL1       -0.0281
     37 C          -2.3610   10.4380   13.7040 C.3     1  UNL1        0.0820
     38 C          -9.8720   16.0760   13.7150 C.3     1  UNL1       -0.0185
     39 N          -2.6710   13.1740   13.7360 N.3     1  UNL1       -0.1902
     40 C          -6.1930    7.6700   13.0320 C.ar    1  UNL1       -0.0583
     41 C          -5.5220   14.1160   13.8290 C.ar    1  UNL1       -0.0567
     42 C          -5.8030   13.1560   11.6390 C.ar    1  UNL1       -0.0567
     43 C          -3.4560   13.4070   12.5230 C.3     1  UNL1        0.0421
     44 C          -9.6650   11.0070   12.9870 C.3     1  UNL1        0.1502
     45 N         -11.3500   14.1300   13.6790 N.ar    1  UNL1       -0.0826
     46 O          -4.2410   11.7230   15.0930 O.2     1  UNL1       -0.1582
     47 O          -1.8310   12.0100   15.7400 O.2     1  UNL1       -0.1582
     48 O         -11.2350   12.7680   13.4820 O.2     1  UNL1       -0.3553
     49 O          -9.0180   10.4960   14.1610 O.3     1  UNL1       -0.4842
     50 S          -2.8510   11.8440   14.7260 S.O2    1  UNL1        0.0297
@<TRIPOS>BOND
     1    14    42    1
     2     4    25    1
     3    42    25   ar
     4    42    30   ar
     5    17    35    1
     6    25    28   ar
     7    21    43    1
     8    15    43    1
     9     1    44    1
    10     7    35    1
    11    43    30    1
    12    43    39    1
    13    30    41   ar
    14    35    31    1
    15    35    36    1
    16     9    37    1
    17    12    40    1
    18    16    44    1
    19    20    38    1
    20    44    33    1
    21    44    49    1
    22    28    29    1
    23    28    24   ar
    24    40    31   ar
    25    40    23   ar
    26    31    27   ar
    27    29    33   ar
    28    29    34   ar
    29    33    48   ar
    30     2    23    1
    31    23    26   ar
    32    48    45   ar
    33    18    36    1
    34    27     6    1
    35    27    32   ar
    36    34    45   ar
    37    34    38    1
    38    10    38    1
    39    37    36    1
    40    37    19    1
    41    37    50    1
    42    38    22    1
    43    36     8    1
    44    39    11    1
    45    39    50    1
    46    26    32   ar
    47    26     5    1
    48    32    49    1
    49    41    24   ar
    50    41    13    1
    51    24     3    1
    52    50    46    2
    53    50    47    2
