@<TRIPOS>MOLECULE
-23.26667
 50 53 0 0 0
SMALL
GASTEIGER

@<TRIPOS>ATOM
      1 H          -0.1280   10.6120   20.2190 H       1  UNL1        0.0780
      2 H          -1.2860   13.8050   23.1910 H       1  UNL1        0.0619
      3 H          -2.2170   10.4720   15.5030 H       1  UNL1        0.0624
      4 H           1.0540   11.5050   18.1210 H       1  UNL1        0.0624
      5 H          -1.3440   11.5050   22.3050 H       1  UNL1        0.0654
      6 H          -2.9410   12.9720   18.5920 H       1  UNL1        0.0657
      7 H          -3.3120   16.4670   19.8360 H       1  UNL1        0.0314
      8 H          -1.2770   15.1940   17.9580 H       1  UNL1        0.0284
      9 H          -1.5790   17.4100   16.5990 H       1  UNL1        0.0515
     10 H           0.0380    6.8500   15.3160 H       1  UNL1        0.0294
     11 H          -1.6600   16.0850   13.9960 H       1  UNL1        0.1480
     12 H          -2.0390   15.7060   21.8050 H       1  UNL1        0.0620
     13 H          -2.1610   12.7250   14.5430 H       1  UNL1        0.0621
     14 H           1.0870   13.7650   17.1870 H       1  UNL1        0.0621
     15 H           0.1870   14.7890   14.3820 H       1  UNL1        0.0490
     16 H          -1.2520    9.3990   20.8920 H       1  UNL1        0.0780
     17 H          -3.8950   15.3050   18.6750 H       1  UNL1        0.0314
     18 H          -1.1890   16.7040   18.8360 H       1  UNL1        0.0284
     19 H          -3.1750   17.5070   17.3380 H       1  UNL1        0.0515
     20 H           0.4110    8.5450   14.9820 H       1  UNL1        0.0294
     21 H          -0.0290   15.5180   15.9520 H       1  UNL1        0.0490
     22 H          -1.2660    7.9700   14.8830 H       1  UNL1        0.0294
     23 C          -1.6370   13.6270   22.1780 C.ar    1  UNL1       -0.0580
     24 C          -1.4750   11.1790   15.8680 C.ar    1  UNL1       -0.0536
     25 C           0.3390   11.7630   17.3430 C.ar    1  UNL1       -0.0536
     26 C          -1.6610   12.3260   21.6700 C.ar    1  UNL1       -0.0199
     27 C          -2.5760   13.1660   19.6010 C.ar    1  UNL1       -0.0167
     28 C          -0.5900   10.8220   16.8890 C.ar    1  UNL1       -0.0127
     29 C          -0.6370    9.4940   17.4660 C.ar    1  UNL1        0.0503
     30 C          -0.5530   13.4310   15.8070 C.ar    1  UNL1       -0.0319
     31 C          -2.5500   14.4760   20.1000 C.ar    1  UNL1       -0.0439
     32 C          -2.1120   12.1000   20.3710 C.ar    1  UNL1        0.1214
     33 C          -0.8380    9.2180   18.8040 C.ar    1  UNL1        0.1823
     34 C          -0.5350    8.2120   16.8640 C.ar    1  UNL1        0.0886
     35 C          -2.9980   15.6160   19.2190 C.3     1  UNL1       -0.0260
     36 C          -1.8710   16.0530   18.2730 C.3     1  UNL1       -0.0281
     37 C          -2.3760   16.8130   17.0540 C.3     1  UNL1        0.0820
     38 C          -0.3270    7.8760   15.4360 C.3     1  UNL1       -0.0185
     39 N          -1.7430   15.4220   14.7660 N.3     1  UNL1       -0.1902
     40 C          -2.0700   14.7000   21.3940 C.ar    1  UNL1       -0.0583
     41 C          -1.4470   12.4680   15.3230 C.ar    1  UNL1       -0.0567
     42 C           0.3580   13.0530   16.8060 C.ar    1  UNL1       -0.0567
     43 C          -0.4950   14.8270   15.2410 C.3     1  UNL1        0.0421
     44 C          -1.0420   10.0350   20.0250 C.3     1  UNL1        0.1502
     45 N          -0.6390    7.2360   17.7740 N.ar    1  UNL1       -0.0826
     46 O          -3.5440   14.5320   16.3150 O.2     1  UNL1       -0.1582
     47 O          -3.8970   16.5970   14.9340 O.2     1  UNL1       -0.1582
     48 O          -0.8320    7.8690   18.9860 O.2     1  UNL1       -0.3553
     49 O          -2.1750   10.8690   19.7810 O.3     1  UNL1       -0.4842
     50 S          -3.0430   15.7620   15.7530 S.O2    1  UNL1        0.0297
@<TRIPOS>BOND
     1    11    39    1
     2    15    43    1
     3    13    41    1
     4    39    43    1
     5    39    50    1
     6    22    38    1
     7    47    50    2
     8    20    38    1
     9    43    30    1
    10    43    21    1
    11    10    38    1
    12    41    30   ar
    13    41    24   ar
    14    38    34    1
    15     3    24    1
    16    50    46    2
    17    50    37    1
    18    30    42   ar
    19    24    28   ar
    20     9    37    1
    21    42    14    1
    22    42    25   ar
    23    34    29   ar
    24    34    45   ar
    25    28    25   ar
    26    28    29    1
    27    37    19    1
    28    37    36    1
    29    25     4    1
    30    29    33   ar
    31    45    48   ar
    32     8    36    1
    33    36    18    1
    34    36    35    1
    35     6    27    1
    36    17    35    1
    37    33    48   ar
    38    33    44    1
    39    35     7    1
    40    35    31    1
    41    27    31   ar
    42    27    32   ar
    43    49    44    1
    44    49    32    1
    45    44     1    1
    46    44    16    1
    47    31    40   ar
    48    32    26   ar
    49    40    12    1
    50    40    23   ar
    51    26    23   ar
    52    26     5    1
    53    23     2    1
