@<TRIPOS>MOLECULE
-33.66907
 50 53 0 0 0
SMALL
GASTEIGER

@<TRIPOS>ATOM
      1 H           8.9070   15.1180   13.9910 H       1  UNL1        0.0780
      2 H          10.3730   11.7860   16.6060 H       1  UNL1        0.0619
      3 H           8.1860   19.7950   15.7370 H       1  UNL1        0.0624
      4 H          10.5340   17.0250   13.4050 H       1  UNL1        0.0624
      5 H           8.7680   13.0010   15.1950 H       1  UNL1        0.0654
      6 H           8.8040   16.2860   17.9690 H       1  UNL1        0.0657
      7 H          10.7610   14.4530   20.4970 H       1  UNL1        0.0314
      8 H          12.6580   15.3480   19.0520 H       1  UNL1        0.0284
      9 H          11.0230   17.9450   19.2110 H       1  UNL1        0.0515
     10 H           6.4830   20.3730   11.8160 H       1  UNL1        0.0294
     11 H          13.2230   20.4040   18.4110 H       1  UNL1        0.1480
     12 H          11.2280   12.7930   18.6910 H       1  UNL1        0.0620
     13 H          10.2290   20.5690   16.8670 H       1  UNL1        0.0621
     14 H          12.5670   17.7770   14.5540 H       1  UNL1        0.0621
     15 H          12.8930   20.8190   16.2040 H       1  UNL1        0.0490
     16 H           7.2060   14.5730   14.0580 H       1  UNL1        0.0780
     17 H           9.8470   15.9100   20.1820 H       1  UNL1        0.0314
     18 H          12.3280   16.2520   20.5210 H       1  UNL1        0.0284
     19 H          11.4100   17.0570   17.7070 H       1  UNL1        0.0515
     20 H           8.1400   20.4640   12.4270 H       1  UNL1        0.0294
     21 H          13.7050   19.2970   16.0100 H       1  UNL1        0.0490
     22 H           6.7730   20.7340   13.5270 H       1  UNL1        0.0294
     23 C          10.0380   12.7770   16.9020 C.ar    1  UNL1       -0.0580
     24 C           9.1420   19.3520   15.4660 C.ar    1  UNL1       -0.0536
     25 C          10.4520   17.7930   14.1710 C.ar    1  UNL1       -0.0536
     26 C           9.1340   13.4750   16.1000 C.ar    1  UNL1       -0.0199
     27 C           9.1580   15.2990   17.6810 C.ar    1  UNL1       -0.0167
     28 C           9.2100   18.3560   14.4850 C.ar    1  UNL1       -0.0127
     29 C           8.0120   17.9470   13.7830 C.ar    1  UNL1        0.0503
     30 C          11.5500   19.2380   15.7890 C.ar    1  UNL1       -0.0319
     31 C          10.0740   14.6120   18.4880 C.ar    1  UNL1       -0.0439
     32 C           8.7130   14.7490   16.4780 C.ar    1  UNL1        0.1214
     33 C           7.4980   16.6670   13.7590 C.ar    1  UNL1        0.1823
     34 C           7.0920   18.6990   13.0040 C.ar    1  UNL1        0.0886
     35 C          10.6030   15.2420   19.7500 C.3     1  UNL1       -0.0260
     36 C          11.9180   15.9960   19.5360 C.3     1  UNL1       -0.0281
     37 C          11.7410   17.2770   18.7230 C.3     1  UNL1        0.0820
     38 C           7.1230   20.1430   12.6750 C.3     1  UNL1       -0.0185
     39 N          12.8060   19.6230   17.9030 N.3     1  UNL1       -0.1902
     40 C          10.5150   13.3460   18.0840 C.ar    1  UNL1       -0.0583
     41 C          10.3020   19.7880   16.1120 C.ar    1  UNL1       -0.0567
     42 C          11.6120   18.2270   14.8200 C.ar    1  UNL1       -0.0567
     43 C          12.8070   19.7510   16.4430 C.3     1  UNL1        0.0421
     44 C           7.9010   15.3700   14.3480 C.3     1  UNL1        0.1502
     45 N           6.1050   17.9260   12.5330 N.ar    1  UNL1       -0.0826
     46 O          13.7280   18.5200   19.9190 O.2     1  UNL1       -0.1582
     47 O          14.1620   17.4900   17.6580 O.2     1  UNL1       -0.1582
     48 O           6.3630   16.6550   13.0100 O.2     1  UNL1       -0.3553
     49 O           7.8540   15.5370   15.7640 O.3     1  UNL1       -0.4842
     50 S          13.2870   18.1690   18.5860 S.O2    1  UNL1        0.0297
@<TRIPOS>BOND
     1    10    38    1
     2    20    38    1
     3    45    34   ar
     4    45    48   ar
     5    38    34    1
     6    38    22    1
     7    34    29   ar
     8    48    33   ar
     9     4    25    1
    10    33    29   ar
    11    33    44    1
    12    29    28    1
    13     1    44    1
    14    16    44    1
    15    25    28   ar
    16    25    42   ar
    17    44    49    1
    18    28    24   ar
    19    14    42    1
    20    42    30   ar
    21     5    26    1
    22    24     3    1
    23    24    41   ar
    24    49    32    1
    25    30    41   ar
    26    30    43    1
    27    21    43    1
    28    26    32   ar
    29    26    23   ar
    30    41    13    1
    31    15    43    1
    32    43    39    1
    33    32    27   ar
    34     2    23    1
    35    23    40   ar
    36    47    50    2
    37    27     6    1
    38    27    31   ar
    39    19    37    1
    40    39    11    1
    41    39    50    1
    42    40    31   ar
    43    40    12    1
    44    31    35    1
    45    50    37    1
    46    50    46    2
    47    37     9    1
    48    37    36    1
    49     8    36    1
    50    36    35    1
    51    36    18    1
    52    35    17    1
    53    35     7    1
