@<TRIPOS>MOLECULE
-31.44793
 50 53 0 0 0
SMALL
GASTEIGER

@<TRIPOS>ATOM
      1 H           7.7250   13.9960   13.0380 H       1  UNL1        0.0780
      2 H           8.8180   15.0460    8.6860 H       1  UNL1        0.0619
      3 H           9.0120   18.9970   11.5960 H       1  UNL1        0.0624
      4 H           9.8970   17.0730   15.3550 H       1  UNL1        0.0624
      5 H           7.9650   14.9540   10.9740 H       1  UNL1        0.0654
      6 H          11.9940   14.7390   12.4690 H       1  UNL1        0.0657
      7 H          13.5040   14.5070    9.0870 H       1  UNL1        0.0314
      8 H          13.3530   17.0000    9.3890 H       1  UNL1        0.0284
      9 H          14.1800   16.3480   12.2750 H       1  UNL1        0.0515
     10 H           5.4180   19.8100   13.6710 H       1  UNL1        0.0294
     11 H          15.1860   19.2550   13.6490 H       1  UNL1        0.1480
     12 H          11.2450   15.0440    8.2350 H       1  UNL1        0.0620
     13 H          11.2180   20.0670   11.6190 H       1  UNL1        0.0621
     14 H          12.1220   18.1240   15.3620 H       1  UNL1        0.0621
     15 H          13.3320   20.2680   14.5420 H       1  UNL1        0.0490
     16 H           8.2490   14.4290   14.6550 H       1  UNL1        0.0780
     17 H          13.8050   14.2990   10.7970 H       1  UNL1        0.0314
     18 H          14.9120   16.3250    9.8390 H       1  UNL1        0.0284
     19 H          12.6840   17.1730   11.7570 H       1  UNL1        0.0515
     20 H           6.5910   19.9330   12.3490 H       1  UNL1        0.0294
     21 H          13.1820   20.7670   12.8890 H       1  UNL1        0.0490
     22 H           7.1210   20.1110   14.0350 H       1  UNL1        0.0294
     23 C           9.5190   14.9750    9.5140 C.ar    1  UNL1       -0.0580
     24 C           9.6790   18.8070   12.4350 C.ar    1  UNL1       -0.0536
     25 C          10.1780   17.7230   14.5300 C.ar    1  UNL1       -0.0536
     26 C           9.0390   14.9140   10.8250 C.ar    1  UNL1       -0.0199
     27 C          11.3060   14.7990   11.6280 C.ar    1  UNL1       -0.0167
     28 C           9.2850   17.9660   13.4820 C.ar    1  UNL1       -0.0127
     29 C           7.9410   17.4210   13.4960 C.ar    1  UNL1        0.0503
     30 C          11.8260   19.1960   13.5060 C.ar    1  UNL1       -0.0319
     31 C          11.8010   14.8830   10.3190 C.ar    1  UNL1       -0.0439
     32 C           9.9340   14.8370   11.8900 C.ar    1  UNL1        0.1214
     33 C           7.5840   16.0870   13.5470 C.ar    1  UNL1        0.1823
     34 C           6.6950   18.1080   13.4350 C.ar    1  UNL1        0.0886
     35 C          13.2880   14.9400   10.0720 C.3     1  UNL1       -0.0260
     36 C          13.8550   16.3640   10.1280 C.3     1  UNL1       -0.0281
     37 C          13.7300   16.9920   11.5130 C.3     1  UNL1        0.0820
     38 C           6.4420   19.5670   13.3700 C.3     1  UNL1       -0.0185
     39 N          14.3010   18.9980   13.2110 N.3     1  UNL1       -0.1902
     40 C          10.8920   14.9710    9.2610 C.ar    1  UNL1       -0.0583
     41 C          10.9370   19.4180   12.4470 C.ar    1  UNL1       -0.0567
     42 C          11.4420   18.3260   14.5370 C.ar    1  UNL1       -0.0567
     43 C          13.1700   19.8770   13.5290 C.3     1  UNL1        0.0421
     44 C           8.2560   14.7650   13.6110 C.3     1  UNL1        0.1502
     45 N           5.6660   17.2550   13.4480 N.ar    1  UNL1       -0.0826
     46 O          15.9850   18.3340   11.5110 O.2     1  UNL1       -0.1582
     47 O          13.8970   19.5320   10.7560 O.2     1  UNL1       -0.1582
     48 O           6.2220   15.9990   13.5230 O.2     1  UNL1       -0.3553
     49 O           9.6240   14.8480   13.2210 O.3     1  UNL1       -0.4842
     50 S          14.5600   18.5700   11.6060 S.O2    1  UNL1        0.0297
@<TRIPOS>BOND
     1    12    40    1
     2     2    23    1
     3     7    35    1
     4    40    23   ar
     5    40    31   ar
     6     8    36    1
     7    23    26   ar
     8    18    36    1
     9    35    36    1
    10    35    31    1
    11    35    17    1
    12    36    37    1
    13    31    27   ar
    14    47    50    2
    15    26     5    1
    16    26    32   ar
    17    46    50    2
    18    37    50    1
    19    37    19    1
    20    37     9    1
    21     3    24    1
    22    50    39    1
    23    13    41    1
    24    27    32   ar
    25    27     6    1
    26    32    49    1
    27    20    38    1
    28    24    41   ar
    29    24    28   ar
    30    41    30   ar
    31    21    43    1
    32     1    44    1
    33    39    43    1
    34    39    11    1
    35    49    44    1
    36    38    34    1
    37    38    10    1
    38    38    22    1
    39    34    45   ar
    40    34    29   ar
    41    45    48   ar
    42    28    29    1
    43    28    25   ar
    44    29    33   ar
    45    30    43    1
    46    30    42   ar
    47    48    33   ar
    48    43    15    1
    49    33    44    1
    50    44    16    1
    51    25    42   ar
    52    25     4    1
    53    42    14    1
