@<TRIPOS>MOLECULE
-32.08855
 50 53 0 0 0
SMALL
GASTEIGER

@<TRIPOS>ATOM
      1 H           0.2100   18.1130   19.8660 H       1  UNL1        0.0780
      2 H          -0.0060   15.2550   23.3580 H       1  UNL1        0.0619
      3 H           3.1630   22.1450   19.8630 H       1  UNL1        0.0624
      4 H           2.3000   18.2480   18.2210 H       1  UNL1        0.0624
      5 H          -0.8310   17.0080   21.8450 H       1  UNL1        0.0654
      6 H           2.4010   19.5760   23.0340 H       1  UNL1        0.0657
      7 H           4.0220   16.8200   25.0870 H       1  UNL1        0.0314
      8 H           5.6420   18.5550   24.8300 H       1  UNL1        0.0284
      9 H           4.5000   18.2760   22.0090 H       1  UNL1        0.0515
     10 H           0.8410   23.1290   16.2950 H       1  UNL1        0.0294
     11 H           7.7520   17.5300   20.5780 H       1  UNL1        0.1480
     12 H           2.0330   15.6080   24.6940 H       1  UNL1        0.0620
     13 H           5.4930   21.4690   20.2410 H       1  UNL1        0.0621
     14 H           4.6310   17.5680   18.6150 H       1  UNL1        0.0621
     15 H           7.3270   19.9540   19.7690 H       1  UNL1        0.0490
     16 H          -1.2760   18.9340   20.4290 H       1  UNL1        0.0780
     17 H           3.3420   18.3170   25.7080 H       1  UNL1        0.0314
     18 H           4.5280   19.6290   24.0130 H       1  UNL1        0.0284
     19 H           5.3040   16.9070   22.8220 H       1  UNL1        0.0515
     20 H           2.2810   22.1260   16.5080 H       1  UNL1        0.0294
     21 H           7.0340   18.6300   18.6880 H       1  UNL1        0.0490
     22 H           1.9370   23.4380   17.6530 H       1  UNL1        0.0294
     23 C           0.5370   16.1930   23.2720 C.ar    1  UNL1       -0.0580
     24 C           3.4760   21.1420   19.5770 C.ar    1  UNL1       -0.0536
     25 C           2.9890   18.9580   18.6720 C.ar    1  UNL1       -0.0536
     26 C           0.0770   17.1880   22.4100 C.ar    1  UNL1       -0.0199
     27 C           1.9010   18.6130   23.1050 C.ar    1  UNL1       -0.0167
     28 C           2.5640   20.2490   19.0070 C.ar    1  UNL1       -0.0127
     29 C           1.2090   20.6770   18.7340 C.ar    1  UNL1        0.0503
     30 C           5.2410   19.4740   19.4360 C.ar    1  UNL1       -0.0319
     31 C           2.3980   17.6080   23.9440 C.ar    1  UNL1       -0.0439
     32 C           0.7720   18.3920   22.3110 C.ar    1  UNL1        0.1214
     33 C           0.0730   20.1370   19.2970 C.ar    1  UNL1        0.1823
     34 C           0.7180   21.7140   17.8970 C.ar    1  UNL1        0.0886
     35 C           3.6370   17.8030   24.7850 C.3     1  UNL1       -0.0260
     36 C           4.7930   18.5710   24.1340 C.3     1  UNL1       -0.0281
     37 C           5.2160   17.9970   22.7850 C.3     1  UNL1        0.0820
     38 C           1.4830   22.6510   17.0430 C.3     1  UNL1       -0.0185
     39 N           6.9120   18.0980   20.6960 N.3     1  UNL1       -0.1902
     40 C           1.6910   16.3990   24.0290 C.ar    1  UNL1       -0.0583
     41 C           4.8020   20.7570   19.7920 C.ar    1  UNL1       -0.0567
     42 C           4.3170   18.5730   18.8880 C.ar    1  UNL1       -0.0567
     43 C           6.6830   19.0790   19.6270 C.3     1  UNL1        0.0421
     44 C          -0.1990   19.0500   20.2650 C.3     1  UNL1        0.1502
     45 N          -0.6190   21.7810   17.9370 N.ar    1  UNL1       -0.0826
     46 O           6.8040   20.0760   22.2990 O.2     1  UNL1       -0.1582
     47 O           7.8280   17.8800   22.9960 O.2     1  UNL1       -0.1582
     48 O          -1.0180   20.7930   18.8170 O.2     1  UNL1       -0.3553
     49 O           0.4250   19.4290   21.4910 O.3     1  UNL1       -0.4842
     50 S           6.8140   18.6310   22.2880 S.O2    1  UNL1        0.0297
@<TRIPOS>BOND
     1    10    38    1
     2    20    38    1
     3    38    22    1
     4    38    34    1
     5    34    45   ar
     6    34    29   ar
     7    45    48   ar
     8     4    25    1
     9    14    42    1
    10    25    42   ar
    11    25    28   ar
    12    21    43    1
    13    29    28    1
    14    29    33   ar
    15    48    33   ar
    16    42    30   ar
    17    28    24   ar
    18    33    44    1
    19    30    43    1
    20    30    41   ar
    21    24    41   ar
    22    24     3    1
    23    43    15    1
    24    43    39    1
    25    41    13    1
    26     1    44    1
    27    44    16    1
    28    44    49    1
    29    11    39    1
    30    39    50    1
    31    49    32    1
    32     5    26    1
    33     9    37    1
    34    50    46    2
    35    50    37    1
    36    50    47    2
    37    32    26   ar
    38    32    27   ar
    39    26    23   ar
    40    37    19    1
    41    37    36    1
    42     6    27    1
    43    27    31   ar
    44    23     2    1
    45    23    40   ar
    46    31    40   ar
    47    31    35    1
    48    18    36    1
    49    40    12    1
    50    36    35    1
    51    36     8    1
    52    35     7    1
    53    35    17    1
