@<TRIPOS>MOLECULE
-29.99468
 50 53 0 0 0
SMALL
GASTEIGER

@<TRIPOS>ATOM
      1 H           9.4730   16.7210   14.9300 H       1  UNL1        0.0780
      2 H          11.7170   13.9370   17.8890 H       1  UNL1        0.0619
      3 H           8.3450   19.9040   14.7510 H       1  UNL1        0.0624
      4 H           5.1780   17.2130   15.8950 H       1  UNL1        0.0624
      5 H          10.4970   14.1300   15.7470 H       1  UNL1        0.0654
      6 H           7.1990   15.9700   17.7870 H       1  UNL1        0.0657
      7 H           8.6780   15.5320   21.1800 H       1  UNL1        0.0314
      8 H           8.3730   17.9520   19.3420 H       1  UNL1        0.0284
      9 H           7.5940   17.8340   22.3060 H       1  UNL1        0.0515
     10 H           4.8510   18.8570   11.3190 H       1  UNL1        0.0294
     11 H           8.4710   20.9630   19.4380 H       1  UNL1        0.1480
     12 H          10.7140   14.7840   19.9830 H       1  UNL1        0.0620
     13 H           8.1290   21.0770   16.9010 H       1  UNL1        0.0621
     14 H           4.9600   18.3770   18.0500 H       1  UNL1        0.0621
     15 H           5.5910   20.0780   19.5460 H       1  UNL1        0.0490
     16 H           9.3340   15.2910   13.8690 H       1  UNL1        0.0780
     17 H           7.1870   15.7660   20.2860 H       1  UNL1        0.0314
     18 H           9.4990   17.7390   20.6640 H       1  UNL1        0.0284
     19 H           6.4440   17.9970   20.9630 H       1  UNL1        0.0515
     20 H           5.6030   19.9870   12.4560 H       1  UNL1        0.0294
     21 H           6.1890   21.5660   18.8200 H       1  UNL1        0.0490
     22 H           4.3430   18.8680   13.0140 H       1  UNL1        0.0294
     23 C          10.7300   14.3930   17.8680 C.ar    1  UNL1       -0.0580
     24 C           7.6020   19.5660   15.4690 C.ar    1  UNL1       -0.0536
     25 C           5.8240   18.0620   16.1110 C.ar    1  UNL1       -0.0536
     26 C          10.0440   14.5100   16.6570 C.ar    1  UNL1       -0.0199
     27 C           8.1910   15.5280   17.8210 C.ar    1  UNL1       -0.0167
     28 C           6.7800   18.4730   15.1790 C.ar    1  UNL1       -0.0127
     29 C           6.9100   17.7800   13.9210 C.ar    1  UNL1        0.0503
     30 C           6.5330   19.8130   17.6430 C.ar    1  UNL1       -0.0319
     31 C           8.8790   15.4330   19.0390 C.ar    1  UNL1       -0.0439
     32 C           8.7840   15.1010   16.6360 C.ar    1  UNL1        0.1214
     33 C           7.7680   16.7270   13.6850 C.ar    1  UNL1        0.1823
     34 C           6.2440   17.9730   12.6850 C.ar    1  UNL1        0.0886
     35 C           8.2580   16.0090   20.2860 C.3     1  UNL1       -0.0260
     36 C           8.4720   17.5230   20.3450 C.3     1  UNL1       -0.0281
     37 C           7.4740   18.1940   21.2790 C.3     1  UNL1        0.0820
     38 C           5.2050   18.9730   12.3480 C.3     1  UNL1       -0.0185
     39 N           7.6720   20.4030   19.7290 N.3     1  UNL1       -0.1902
     40 C          10.1560   14.8640   19.0520 C.ar    1  UNL1       -0.0583
     41 C           7.4770   20.2320   16.6920 C.ar    1  UNL1       -0.0567
     42 C           5.7030   18.7250   17.3360 C.ar    1  UNL1       -0.0567
     43 C           6.4250   20.5080   18.9820 C.3     1  UNL1        0.0421
     44 C           8.7730   15.9970   14.4910 C.3     1  UNL1        0.1502
     45 N           6.6760   17.1050   11.7610 N.ar    1  UNL1       -0.0826
     46 O           6.4910   20.5550   21.9430 O.2     1  UNL1       -0.1582
     47 O           8.9940   20.2750   21.8250 O.2     1  UNL1       -0.1582
     48 O           7.6270   16.3240   12.3920 O.2     1  UNL1       -0.3553
     49 O           8.0530   15.2690   15.4920 O.3     1  UNL1       -0.4842
     50 S           7.6670   19.9760   21.3340 S.O2    1  UNL1        0.0297
@<TRIPOS>BOND
     1    10    38    1
     2    45    48   ar
     3    45    34   ar
     4    38    20    1
     5    38    34    1
     6    38    22    1
     7    48    33   ar
     8    34    29   ar
     9    33    29   ar
    10    33    44    1
    11    16    44    1
    12    29    28    1
    13    44     1    1
    14    44    49    1
    15     3    24    1
    16    28    24   ar
    17    28    25   ar
    18    24    41   ar
    19    49    32    1
    20     5    26    1
    21     4    25    1
    22    25    42   ar
    23    32    26   ar
    24    32    27   ar
    25    26    23   ar
    26    41    13    1
    27    41    30   ar
    28    42    30   ar
    29    42    14    1
    30    30    43    1
    31     6    27    1
    32    27    31   ar
    33    23     2    1
    34    23    40   ar
    35    21    43    1
    36    43    15    1
    37    43    39    1
    38    31    40   ar
    39    31    35    1
    40    40    12    1
    41     8    36    1
    42    11    39    1
    43    39    50    1
    44    35    17    1
    45    35    36    1
    46    35     7    1
    47    36    18    1
    48    36    37    1
    49    19    37    1
    50    37    50    1
    51    37     9    1
    52    50    47    2
    53    50    46    2
