@<TRIPOS>MOLECULE
-31.89994
 50 53 0 0 0
SMALL
GASTEIGER

@<TRIPOS>ATOM
      1 H          10.3940   23.5600   14.3130 H       1  UNL1        0.0780
      2 H          15.5640   25.9380   15.4330 H       1  UNL1        0.0619
      3 H           8.2070   21.0330   16.5250 H       1  UNL1        0.0624
      4 H          12.5060   20.7260   16.3270 H       1  UNL1        0.0624
      5 H          14.7290   23.9260   14.2520 H       1  UNL1        0.0654
      6 H          10.9300   24.3510   16.2200 H       1  UNL1        0.0657
      7 H          10.4660   26.5410   17.3380 H       1  UNL1        0.0314
      8 H          11.1480   26.7590   19.7830 H       1  UNL1        0.0284
      9 H          11.4510   23.9270   18.6610 H       1  UNL1        0.0515
     10 H           9.2590   17.4260   13.8760 H       1  UNL1        0.0294
     11 H           9.4720   22.7470   21.8000 H       1  UNL1        0.1480
     12 H          14.0940   27.1640   16.9930 H       1  UNL1        0.0620
     13 H           8.3480   21.4000   18.9570 H       1  UNL1        0.0621
     14 H          12.6490   21.0870   18.7530 H       1  UNL1        0.0621
     15 H          11.6080   21.3290   20.9000 H       1  UNL1        0.0490
     16 H          11.2760   23.2570   12.8080 H       1  UNL1        0.0780
     17 H          11.7800   27.6430   17.6760 H       1  UNL1        0.0314
     18 H          12.6790   25.9810   19.4100 H       1  UNL1        0.0284
     19 H           9.8960   24.7390   19.0120 H       1  UNL1        0.0515
     20 H           8.2820   18.3280   15.0480 H       1  UNL1        0.0294
     21 H           9.9980   20.6860   21.0110 H       1  UNL1        0.0490
     22 H           9.9370   17.8340   15.4580 H       1  UNL1        0.0294
     23 C          14.5420   25.6030   15.5890 C.ar    1  UNL1       -0.0580
     24 C           9.1830   21.0450   17.0060 C.ar    1  UNL1       -0.0536
     25 C          11.5890   20.8710   16.8970 C.ar    1  UNL1       -0.0536
     26 C          14.0700   24.4740   14.9210 C.ar    1  UNL1       -0.0199
     27 C          11.9290   24.7220   16.0080 C.ar    1  UNL1       -0.0167
     28 C          10.3470   20.8560   16.2550 C.ar    1  UNL1       -0.0127
     29 C          10.2610   20.6170   14.8330 C.ar    1  UNL1        0.0503
     30 C          10.5070   21.2640   19.0370 C.ar    1  UNL1       -0.0319
     31 C          12.3930   25.8570   16.6900 C.ar    1  UNL1       -0.0439
     32 C          12.7600   24.0430   15.1140 C.ar    1  UNL1        0.1214
     33 C          10.6170   21.5170   13.8510 C.ar    1  UNL1        0.1823
     34 C           9.8020   19.4830   14.1160 C.ar    1  UNL1        0.0886
     35 C          11.5090   26.5790   17.6770 C.3     1  UNL1       -0.0260
     36 C          11.6270   26.0400   19.1060 C.3     1  UNL1       -0.0281
     37 C          10.9570   24.6800   19.2760 C.3     1  UNL1        0.0820
     38 C           9.2930   18.1990   14.6510 C.3     1  UNL1       -0.0185
     39 N          10.0460   22.7670   20.9560 N.3     1  UNL1       -0.1902
     40 C          13.7070   26.2920   16.4700 C.ar    1  UNL1       -0.0583
     41 C           9.2630   21.2500   18.3860 C.ar    1  UNL1       -0.0567
     42 C          11.6690   21.0730   18.2780 C.ar    1  UNL1       -0.0567
     43 C          10.5890   21.4740   20.5270 C.3     1  UNL1        0.0421
     44 C          11.1310   22.9060   13.8360 C.3     1  UNL1        0.1502
     45 N           9.8680   19.6840   12.7940 N.ar    1  UNL1       -0.0826
     46 O          12.3970   23.6650   21.2580 O.2     1  UNL1       -0.1582
     47 O          10.3780   25.0690   21.8130 O.2     1  UNL1       -0.1582
     48 O          10.3830   20.9570   12.6320 O.2     1  UNL1       -0.3553
     49 O          12.4060   22.8850   14.4810 O.3     1  UNL1       -0.4842
     50 S          11.0530   24.1080   20.9680 S.O2    1  UNL1        0.0297
@<TRIPOS>BOND
     1    48    45   ar
     2    48    33   ar
     3    45    34   ar
     4    16    44    1
     5    44    33    1
     6    44     1    1
     7    44    49    1
     8    33    29   ar
     9    10    38    1
    10    34    38    1
    11    34    29   ar
    12     5    26    1
    13    49    32    1
    14    38    20    1
    15    38    22    1
    16    29    28    1
    17    26    32   ar
    18    26    23   ar
    19    32    27   ar
    20     2    23    1
    21    23    40   ar
    22    27     6    1
    23    27    31   ar
    24    28    25   ar
    25    28    24   ar
    26     4    25    1
    27    40    31   ar
    28    40    12    1
    29     3    24    1
    30    31    35    1
    31    25    42   ar
    32    24    41   ar
    33     7    35    1
    34    17    35    1
    35    35    36    1
    36    42    14    1
    37    42    30   ar
    38    41    13    1
    39    41    30   ar
    40     9    37    1
    41    19    37    1
    42    30    43    1
    43    36    37    1
    44    36    18    1
    45    36     8    1
    46    37    50    1
    47    43    15    1
    48    43    39    1
    49    43    21    1
    50    39    50    1
    51    39    11    1
    52    50    46    2
    53    50    47    2
