@<TRIPOS>MOLECULE
-28.83495
 50 53 0 0 0
SMALL
GASTEIGER

@<TRIPOS>ATOM
      1 H           3.1070   21.7910   27.9930 H       1  UNL1        0.0780
      2 H           6.3880   18.8180   29.1810 H       1  UNL1        0.0619
      3 H           2.1520   22.3500   25.1380 H       1  UNL1        0.0624
      4 H           4.6640   25.7980   25.7880 H       1  UNL1        0.0624
      5 H           4.7630   20.6290   29.5400 H       1  UNL1        0.0654
      6 H           6.7550   23.0070   26.5660 H       1  UNL1        0.0657
      7 H           9.6640   21.3360   26.4470 H       1  UNL1        0.0314
      8 H           7.8840   19.5520   24.7690 H       1  UNL1        0.0284
      9 H           9.9010   19.7640   23.0310 H       1  UNL1        0.0515
     10 H           0.2680   27.1190   26.4380 H       1  UNL1        0.0294
     11 H           6.4840   21.3150   23.9700 H       1  UNL1        0.1480
     12 H           8.2060   19.0620   27.5360 H       1  UNL1        0.0620
     13 H           3.6410   21.6040   23.3290 H       1  UNL1        0.0621
     14 H           6.1570   25.0520   23.9780 H       1  UNL1        0.0621
     15 H           6.5270   23.5380   22.0230 H       1  UNL1        0.0490
     16 H           3.3370   22.6190   29.5650 H       1  UNL1        0.0780
     17 H           8.5750   22.1910   25.3830 H       1  UNL1        0.0314
     18 H           9.5520   19.3600   25.2830 H       1  UNL1        0.0284
     19 H           9.9900   21.4390   23.6040 H       1  UNL1        0.0515
     20 H           0.6780   26.0290   25.1050 H       1  UNL1        0.0294
     21 H           5.5020   22.1060   21.7980 H       1  UNL1        0.0490
     22 H           1.8810   27.1870   25.7080 H       1  UNL1        0.0294
     23 C           6.4600   19.7300   28.5930 C.ar    1  UNL1       -0.0580
     24 C           3.0130   22.9600   24.8710 C.ar    1  UNL1       -0.0536
     25 C           4.4160   24.8990   25.2290 C.ar    1  UNL1       -0.0536
     26 C           5.5340   20.7570   28.7870 C.ar    1  UNL1       -0.0199
     27 C           6.6780   22.0750   27.1210 C.ar    1  UNL1       -0.0167
     28 C           3.3060   24.1260   25.5840 C.ar    1  UNL1       -0.0127
     29 C           2.5250   24.4800   26.7440 C.ar    1  UNL1        0.0503
     30 C           4.9980   23.2850   23.5120 C.ar    1  UNL1       -0.0319
     31 C           7.6050   21.0440   26.9030 C.ar    1  UNL1       -0.0439
     32 C           5.6360   21.9280   28.0410 C.ar    1  UNL1        0.1214
     33 C           2.6360   23.8470   27.9640 C.ar    1  UNL1        0.1823
     34 C           1.5690   25.5000   26.9630 C.ar    1  UNL1        0.0886
     35 C           8.7180   21.2350   25.9000 C.3     1  UNL1       -0.0260
     36 C           8.8340   20.0870   24.8830 C.3     1  UNL1       -0.0281
     37 C           9.3360   20.5660   23.5210 C.3     1  UNL1        0.0820
     38 C           1.0710   26.5130   26.0050 C.3     1  UNL1       -0.0185
     39 N           6.9880   21.9140   23.3100 N.3     1  UNL1       -0.1902
     40 C           7.4900   19.8720   27.6590 C.ar    1  UNL1       -0.0583
     41 C           3.8560   22.5400   23.8420 C.ar    1  UNL1       -0.0567
     42 C           5.2610   24.4770   24.2010 C.ar    1  UNL1       -0.0567
     43 C           6.0150   22.7230   22.5450 C.3     1  UNL1        0.0421
     44 C           3.4460   22.7150   28.4790 C.3     1  UNL1        0.1502
     45 N           1.1060   25.4670   28.2200 N.ar    1  UNL1       -0.0826
     46 O           8.5520   21.8080   21.3270 O.2     1  UNL1       -0.1582
     47 O           7.2710   19.7670   22.0730 O.2     1  UNL1       -0.1582
     48 O           1.7780   24.4310   28.8440 O.2     1  UNL1       -0.3553
     49 O           4.8090   23.0090   28.1670 O.3     1  UNL1       -0.4842
     50 S           8.0130   20.9710   22.3740 S.O2    1  UNL1        0.0297
@<TRIPOS>BOND
     1    46    50    2
     2    21    43    1
     3    15    43    1
     4    47    50    2
     5    50    39    1
     6    50    37    1
     7    43    39    1
     8    43    30    1
     9     9    37    1
    10    39    11    1
    11    13    41    1
    12    30    41   ar
    13    30    42   ar
    14    37    19    1
    15    37    36    1
    16    41    24   ar
    17    14    42    1
    18    42    25   ar
    19     8    36    1
    20    24     3    1
    21    24    28   ar
    22    36    18    1
    23    36    35    1
    24    20    38    1
    25    25    28   ar
    26    25     4    1
    27    17    35    1
    28    28    29    1
    29    22    38    1
    30    35     7    1
    31    35    31    1
    32    38    10    1
    33    38    34    1
    34     6    27    1
    35    29    34   ar
    36    29    33   ar
    37    31    27   ar
    38    31    40   ar
    39    34    45   ar
    40    27    32   ar
    41    12    40    1
    42    40    23   ar
    43    33    44    1
    44    33    48   ar
    45     1    44    1
    46    32    49    1
    47    32    26   ar
    48    49    44    1
    49    45    48   ar
    50    44    16    1
    51    23    26   ar
    52    23     2    1
    53    26     5    1
