@<TRIPOS>MOLECULE
-30.53937
 50 53 0 0 0
SMALL
GASTEIGER

@<TRIPOS>ATOM
      1 H           2.9720   14.8020   23.6500 H       1  UNL1        0.0780
      2 H           6.6560   14.2010   26.1880 H       1  UNL1        0.0619
      3 H           2.8770   16.1760   20.7580 H       1  UNL1        0.0624
      4 H           1.5110   19.2170   23.4930 H       1  UNL1        0.0624
      5 H           4.2630   14.0970   25.6330 H       1  UNL1        0.0654
      6 H           4.1400   18.3860   25.3510 H       1  UNL1        0.0657
      7 H           7.7550   18.7600   26.3930 H       1  UNL1        0.0314
      8 H           7.2690   20.6030   24.7600 H       1  UNL1        0.0284
      9 H           7.6020   17.8410   23.4370 H       1  UNL1        0.0515
     10 H          -2.1530   17.3210   21.1520 H       1  UNL1        0.0294
     11 H           6.9770   18.7340   20.3520 H       1  UNL1        0.1480
     12 H           7.8250   16.3680   26.3280 H       1  UNL1        0.0620
     13 H           4.8210   17.5600   20.1840 H       1  UNL1        0.0621
     14 H           3.4530   20.6090   22.9230 H       1  UNL1        0.0621
     15 H           5.5970   20.8190   21.9790 H       1  UNL1        0.0490
     16 H           1.8720   14.4330   25.0140 H       1  UNL1        0.0780
     17 H           6.1910   19.5160   26.6080 H       1  UNL1        0.0314
     18 H           5.9360   19.6790   24.0950 H       1  UNL1        0.0284
     19 H           8.8900   18.8510   24.1060 H       1  UNL1        0.0515
     20 H          -0.6540   17.4380   20.2170 H       1  UNL1        0.0294
     21 H           5.4060   20.4950   20.2570 H       1  UNL1        0.0490
     22 H          -1.0010   18.6200   21.4950 H       1  UNL1        0.0294
     23 C           6.1100   15.1200   25.9900 C.ar    1  UNL1       -0.0580
     24 C           2.9940   17.1500   21.2290 C.ar    1  UNL1       -0.0536
     25 C           2.2250   18.8580   22.7550 C.ar    1  UNL1       -0.0536
     26 C           4.7530   15.0650   25.6650 C.ar    1  UNL1       -0.0199
     27 C           4.7070   17.4730   25.5240 C.ar    1  UNL1       -0.0167
     28 C           2.0650   17.6000   22.1690 C.ar    1  UNL1       -0.0127
     29 C           0.9760   16.7480   22.5790 C.ar    1  UNL1        0.0503
     30 C           4.3020   19.1800   21.5290 C.ar    1  UNL1       -0.0319
     31 C           6.0710   17.5410   25.8400 C.ar    1  UNL1       -0.0439
     32 C           4.0530   16.2440   25.4140 C.ar    1  UNL1        0.1214
     33 C           1.0960   15.7470   23.5190 C.ar    1  UNL1        0.1823
     34 C          -0.3850   16.7090   22.1950 C.ar    1  UNL1        0.0886
     35 C           6.7680   18.8760   25.9280 C.3     1  UNL1       -0.0260
     36 C           6.9130   19.5820   24.5760 C.3     1  UNL1       -0.0281
     37 C           7.8930   18.8740   23.6500 C.3     1  UNL1        0.0820
     38 C          -1.0870   17.5660   21.2140 C.3     1  UNL1       -0.0185
     39 N           6.7460   19.2090   21.2230 N.3     1  UNL1       -0.1902
     40 C           6.7670   16.3490   26.0720 C.ar    1  UNL1       -0.0583
     41 C           4.1010   17.9390   20.9060 C.ar    1  UNL1       -0.0567
     42 C           3.3350   19.6440   22.4340 C.ar    1  UNL1       -0.0567
     43 C           5.5280   20.0180   21.2360 C.3     1  UNL1        0.0421
     44 C           2.2170   15.2170   24.3310 C.3     1  UNL1        0.1502
     45 N          -1.0430   15.7380   22.8430 N.ar    1  UNL1       -0.0826
     46 O           8.0530   21.1280   22.2380 O.2     1  UNL1       -0.1582
     47 O           9.2040   19.0540   21.3900 O.2     1  UNL1       -0.1582
     48 O          -0.1120   15.1390   23.6740 O.2     1  UNL1       -0.3553
     49 O           2.7260   16.3130   25.0940 O.3     1  UNL1       -0.4842
     50 S           8.0960   19.6930   22.0680 S.O2    1  UNL1        0.0297
@<TRIPOS>BOND
     1    13    41    1
     2    20    38    1
     3    21    43    1
     4    11    39    1
     5     3    24    1
     6    41    24   ar
     7    41    30   ar
     8    10    38    1
     9    38    22    1
    10    38    34    1
    11    39    43    1
    12    39    50    1
    13    24    28   ar
    14    43    30    1
    15    43    15    1
    16    47    50    2
    17    30    42   ar
    18    50    46    2
    19    50    37    1
    20    28    29    1
    21    28    25   ar
    22    34    29   ar
    23    34    45   ar
    24    42    25   ar
    25    42    14    1
    26    29    33   ar
    27    25     4    1
    28    45    48   ar
    29     9    37    1
    30    33    48   ar
    31    33    44    1
    32    37    19    1
    33    37    36    1
    34     1    44    1
    35    18    36    1
    36    44    16    1
    37    44    49    1
    38    36     8    1
    39    36    35    1
    40    49    32    1
    41     6    27    1
    42    32    27   ar
    43    32    26   ar
    44    27    31   ar
    45     5    26    1
    46    26    23   ar
    47    31    35    1
    48    31    40   ar
    49    35     7    1
    50    35    17    1
    51    23    40   ar
    52    23     2    1
    53    40    12    1
