@<TRIPOS>MOLECULE
-25.36529
 50 53 0 0 0
SMALL
GASTEIGER

@<TRIPOS>ATOM
      1 H           6.9100   13.2800   15.4420 H       1  UNL1        0.0780
      2 H           3.4730   18.0820   15.8580 H       1  UNL1        0.0619
      3 H           5.7320   15.8620   18.8630 H       1  UNL1        0.0624
      4 H           7.7960   12.1710   18.0000 H       1  UNL1        0.0624
      5 H           5.6630   17.4930   14.8610 H       1  UNL1        0.0654
      6 H           4.7600   13.3220   15.3620 H       1  UNL1        0.0657
      7 H           2.9890   12.7590   16.9450 H       1  UNL1        0.0314
      8 H           0.5200   14.5420   17.0000 H       1  UNL1        0.0284
      9 H           0.4980   11.8460   17.2990 H       1  UNL1        0.0515
     10 H          10.1350   16.6460   19.6580 H       1  UNL1        0.0294
     11 H           2.7260   10.6750   18.8710 H       1  UNL1        0.1480
     12 H           1.9450   16.3280   16.6320 H       1  UNL1        0.0620
     13 H           3.9400   14.5970   19.9750 H       1  UNL1        0.0621
     14 H           5.9960   10.9050   19.0990 H       1  UNL1        0.0621
     15 H           3.3180   12.4540   21.1070 H       1  UNL1        0.0490
     16 H           8.1930   13.8930   14.4250 H       1  UNL1        0.0780
     17 H           1.8980   13.1230   15.6130 H       1  UNL1        0.0314
     18 H           1.6470   14.4810   18.3510 H       1  UNL1        0.0284
     19 H          -0.5550   12.9360   18.2140 H       1  UNL1        0.0515
     20 H           9.1640   15.2800   20.2220 H       1  UNL1        0.0294
     21 H           4.0540   10.9380   20.6450 H       1  UNL1        0.0490
     22 H           8.3910   16.8450   19.8990 H       1  UNL1        0.0294
     23 C           3.7630   17.0380   15.7660 C.ar    1  UNL1       -0.0580
     24 C           5.8100   14.7790   18.9330 C.ar    1  UNL1       -0.0536
     25 C           6.9570   12.7090   18.4350 C.ar    1  UNL1       -0.0536
     26 C           4.9930   16.7080   15.2040 C.ar    1  UNL1       -0.0199
     27 C           4.4980   14.3660   15.5020 C.ar    1  UNL1       -0.0167
     28 C           6.8900   14.1040   18.3580 C.ar    1  UNL1       -0.0127
     29 C           7.9190   14.8470   17.6700 C.ar    1  UNL1        0.0503
     30 C           4.8470   12.6600   19.6350 C.ar    1  UNL1       -0.0319
     31 C           3.2580   14.6820   16.0880 C.ar    1  UNL1       -0.0439
     32 C           5.3730   15.3730   15.0900 C.ar    1  UNL1        0.1214
     33 C           8.1030   14.8530   16.3040 C.ar    1  UNL1        0.1823
     34 C           8.9050   15.7410   18.1580 C.ar    1  UNL1        0.0886
     35 C           2.3560   13.5430   16.5170 C.3     1  UNL1       -0.0260
     36 C           1.2440   13.8980   17.5150 C.3     1  UNL1       -0.0281
     37 C           0.4910   12.6680   18.0210 C.3     1  UNL1        0.0820
     38 C           9.1640   16.1500   19.5580 C.3     1  UNL1       -0.0185
     39 N           2.6760   11.6330   19.2210 N.3     1  UNL1       -0.1902
     40 C           2.9000   16.0320   16.2060 C.ar    1  UNL1       -0.0583
     41 C           4.7920   14.0600   19.5620 C.ar    1  UNL1       -0.0567
     42 C           5.9370   11.9900   19.0650 C.ar    1  UNL1       -0.0567
     43 C           3.6990   11.8970   20.2470 C.3     1  UNL1        0.0421
     44 C           7.4340   14.1960   15.1560 C.3     1  UNL1        0.1502
     45 N           9.6560   16.2270   17.1620 N.ar    1  UNL1       -0.0826
     46 O           1.0850   13.1170   20.5480 O.2     1  UNL1       -0.1582
     47 O           0.4320   10.7800   19.8520 O.2     1  UNL1       -0.1582
     48 O           9.1480   15.6720   16.0020 O.2     1  UNL1       -0.3553
     49 O           6.5850   15.1440   14.4980 O.3     1  UNL1       -0.4842
     50 S           1.0930   12.0380   19.5860 S.O2    1  UNL1        0.0297
@<TRIPOS>BOND
     1    16    44    1
     2    49    32    1
     3    49    44    1
     4     5    26    1
     5    32    26   ar
     6    32    27   ar
     7    44     1    1
     8    44    33    1
     9    26    23   ar
    10     6    27    1
    11    27    31   ar
    12    17    35    1
    13    23     2    1
    14    23    40   ar
    15    48    33   ar
    16    48    45   ar
    17    31    40   ar
    18    31    35    1
    19    40    12    1
    20    33    29   ar
    21    35     7    1
    22    35    36    1
    23     8    36    1
    24    45    34   ar
    25     9    37    1
    26    36    37    1
    27    36    18    1
    28    29    34   ar
    29    29    28    1
    30     4    25    1
    31    37    19    1
    32    37    50    1
    33    34    38    1
    34    28    25   ar
    35    28    24   ar
    36    25    42   ar
    37     3    24    1
    38    11    39    1
    39    24    41   ar
    40    42    14    1
    41    42    30   ar
    42    39    50    1
    43    39    43    1
    44    38    10    1
    45    38    22    1
    46    38    20    1
    47    41    30   ar
    48    41    13    1
    49    50    47    2
    50    50    46    2
    51    30    43    1
    52    43    21    1
    53    43    15    1
