@<TRIPOS>MOLECULE
-27.34530
 50 53 0 0 0
SMALL
GASTEIGER

@<TRIPOS>ATOM
      1 H          12.5210   14.5610   14.1690 H       1  UNL1        0.0780
      2 H          11.5100   13.0150   19.8770 H       1  UNL1        0.0619
      3 H           8.2840   15.9740   17.3390 H       1  UNL1        0.0624
      4 H          10.9250   17.3520   14.2170 H       1  UNL1        0.0624
      5 H          11.5300   13.1380   17.4370 H       1  UNL1        0.0654
      6 H          13.0570   17.1580   17.6550 H       1  UNL1        0.0657
      7 H          13.4830   18.1900   19.7170 H       1  UNL1        0.0314
      8 H          12.7620   18.5340   22.1340 H       1  UNL1        0.0284
      9 H          10.2880   18.7880   21.7160 H       1  UNL1        0.0515
     10 H           6.3550   14.2970   13.9070 H       1  UNL1        0.0294
     11 H          12.2820   20.2670   18.1810 H       1  UNL1        0.1480
     12 H          12.2590   14.9130   21.2490 H       1  UNL1        0.0620
     13 H           8.5470   18.1110   18.5070 H       1  UNL1        0.0621
     14 H          11.2220   19.4810   15.4090 H       1  UNL1        0.0621
     15 H           9.2980   20.4150   18.4700 H       1  UNL1        0.0490
     16 H          12.4000   13.3610   15.4390 H       1  UNL1        0.0780
     17 H          14.1070   17.0390   20.8750 H       1  UNL1        0.0314
     18 H          11.8510   17.0440   22.0550 H       1  UNL1        0.0284
     19 H          10.4760   18.0690   20.1250 H       1  UNL1        0.0515
     20 H           6.8470   15.9480   14.3060 H       1  UNL1        0.0294
     21 H          10.2840   21.0600   17.1750 H       1  UNL1        0.0490
     22 H           6.5080   14.7850   15.6050 H       1  UNL1        0.0294
     23 C          11.8440   13.9290   19.3910 C.ar    1  UNL1       -0.0580
     24 C           8.9020   16.7480   16.8910 C.ar    1  UNL1       -0.0536
     25 C          10.3870   17.5190   15.1470 C.ar    1  UNL1       -0.0536
     26 C          11.8670   14.0040   17.9970 C.ar    1  UNL1       -0.0199
     27 C          12.7150   16.2550   18.1570 C.ar    1  UNL1       -0.0167
     28 C           9.5850   16.5110   15.6940 C.ar    1  UNL1       -0.0127
     29 C           9.4980   15.2090   15.0720 C.ar    1  UNL1        0.0503
     30 C           9.9030   18.9550   17.0440 C.ar    1  UNL1       -0.0319
     31 C          12.6860   16.2000   19.5580 C.ar    1  UNL1       -0.0439
     32 C          12.3150   15.1640   17.3730 C.ar    1  UNL1        0.1214
     33 C          10.5570   14.3410   14.8820 C.ar    1  UNL1        0.1823
     34 C           8.3660   14.4830   14.6170 C.ar    1  UNL1        0.0886
     35 C          13.1860   17.3680   20.3770 C.3     1  UNL1       -0.0260
     36 C          12.2120   17.8810   21.4460 C.3     1  UNL1       -0.0281
     37 C          11.0020   18.6320   20.8990 C.3     1  UNL1        0.0820
     38 C           6.9440   14.8990   14.6070 C.3     1  UNL1       -0.0185
     39 N          11.3950   20.0510   18.6310 N.3     1  UNL1       -0.1902
     40 C          12.2590   15.0130   20.1660 C.ar    1  UNL1       -0.0583
     41 C           9.0590   17.9610   17.5590 C.ar    1  UNL1       -0.0567
     42 C          10.5540   18.7300   15.8240 C.ar    1  UNL1       -0.0567
     43 C          10.1720   20.2010   17.8460 C.3     1  UNL1        0.0421
     44 C          12.0240   14.3400   15.1210 C.3     1  UNL1        0.1502
     45 N           8.7140   13.2750   14.1590 N.ar    1  UNL1       -0.0826
     46 O          10.2650   21.1560   20.5910 O.2     1  UNL1       -0.1582
     47 O          12.7260   20.6340   20.6380 O.2     1  UNL1       -0.1582
     48 O          10.0820   13.1920   14.3220 O.2     1  UNL1       -0.3553
     49 O          12.4060   15.3770   16.0250 O.3     1  UNL1       -0.4842
     50 S          11.3710   20.2790   20.2780 S.O2    1  UNL1        0.0297
@<TRIPOS>BOND
     1    10    38    1
     2    45    48   ar
     3    45    34   ar
     4     1    44    1
     5     4    25    1
     6    20    38    1
     7    48    33   ar
     8    38    34    1
     9    38    22    1
    10    34    29   ar
    11    33    29   ar
    12    33    44    1
    13    29    28    1
    14    44    16    1
    15    44    49    1
    16    25    28   ar
    17    25    42   ar
    18    14    42    1
    19    28    24   ar
    20    42    30   ar
    21    49    32    1
    22    24     3    1
    23    24    41   ar
    24    30    41   ar
    25    30    43    1
    26    21    43    1
    27    32    26   ar
    28    32    27   ar
    29     5    26    1
    30    41    13    1
    31     6    27    1
    32    43    15    1
    33    43    39    1
    34    26    23   ar
    35    27    31   ar
    36    11    39    1
    37    39    50    1
    38    23     2    1
    39    23    40   ar
    40    31    40   ar
    41    31    35    1
    42     7    35    1
    43    19    37    1
    44    40    12    1
    45    50    46    2
    46    50    47    2
    47    50    37    1
    48    35    17    1
    49    35    36    1
    50    37    36    1
    51    37     9    1
    52    36    18    1
    53    36     8    1
