@<TRIPOS>MOLECULE
-19.71330
 50 53 0 0 0
SMALL
GASTEIGER

@<TRIPOS>ATOM
      1 H          13.3260   19.4720   12.0940 H       1  UNL1        0.0780
      2 H          15.3100   22.9530   14.4220 H       1  UNL1        0.0619
      3 H           8.1060   18.8030   13.1490 H       1  UNL1        0.0624
      4 H          11.4730   16.7360   14.8800 H       1  UNL1        0.0624
      5 H          14.3540   21.3430   12.8240 H       1  UNL1        0.0654
      6 H          10.4410   22.0210   14.4570 H       1  UNL1        0.0657
      7 H          10.1250   23.7080   16.2200 H       1  UNL1        0.0314
      8 H          11.4780   24.0890   18.5870 H       1  UNL1        0.0284
      9 H           9.4610   22.7540   18.6420 H       1  UNL1        0.0515
     10 H           9.0280   15.2840   10.4040 H       1  UNL1        0.0294
     11 H          10.1510   19.2100   18.8710 H       1  UNL1        0.1480
     12 H          13.8750   24.0670   16.0900 H       1  UNL1        0.0620
     13 H           7.2300   19.2560   15.3900 H       1  UNL1        0.0621
     14 H          10.5990   17.1870   17.1300 H       1  UNL1        0.0621
     15 H           8.3200   17.9160   18.4660 H       1  UNL1        0.0490
     16 H          12.7150   19.0520   13.7190 H       1  UNL1        0.0780
     17 H          11.4240   24.8430   16.4640 H       1  UNL1        0.0314
     18 H          12.4470   22.7700   17.9620 H       1  UNL1        0.0284
     19 H          10.7860   21.8540   19.4160 H       1  UNL1        0.0515
     20 H           7.9800   16.4500   11.2310 H       1  UNL1        0.0294
     21 H           7.4540   19.2610   17.7410 H       1  UNL1        0.0490
     22 H           8.8890   15.2470   12.1670 H       1  UNL1        0.0294
     23 C          14.2450   22.7380   14.4460 C.ar    1  UNL1       -0.0580
     24 C           8.6350   18.4080   14.0140 C.ar    1  UNL1       -0.0536
     25 C          10.5250   17.2590   14.9860 C.ar    1  UNL1       -0.0536
     26 C          13.7010   21.8190   13.5480 C.ar    1  UNL1       -0.0199
     27 C          11.5080   22.2290   14.4750 C.ar    1  UNL1       -0.0167
     28 C           9.8540   17.7470   13.8600 C.ar    1  UNL1       -0.0127
     29 C          10.4390   17.6330   12.5460 C.ar    1  UNL1        0.0503
     30 C           8.8470   18.2540   16.4310 C.ar    1  UNL1       -0.0319
     31 C          12.0490   23.1170   15.4180 C.ar    1  UNL1       -0.0439
     32 C          12.3350   21.5420   13.5820 C.ar    1  UNL1        0.1214
     33 C          11.5180   18.3700   12.1050 C.ar    1  UNL1        0.1823
     34 C          10.0550   16.8650   11.4190 C.ar    1  UNL1        0.0886
     35 C          11.1870   23.7700   16.4800 C.3     1  UNL1       -0.0260
     36 C          11.4540   23.2320   17.9010 C.3     1  UNL1       -0.0281
     37 C          10.4180   22.2520   18.4650 C.3     1  UNL1        0.0820
     38 C           8.9300   15.9100   11.2970 C.3     1  UNL1       -0.0185
     39 N           9.3900   19.7310   18.4300 N.3     1  UNL1       -0.1902
     40 C          13.4280   23.3720   15.3830 C.ar    1  UNL1       -0.0583
     41 C           8.1320   18.6550   15.2910 C.ar    1  UNL1       -0.0567
     42 C          10.0200   17.5050   16.2670 C.ar    1  UNL1       -0.0567
     43 C           8.4350   18.7740   17.7920 C.3     1  UNL1        0.0421
     44 C          12.4260   19.3770   12.7120 C.3     1  UNL1        0.1502
     45 N          10.8660   17.0910   10.3780 N.ar    1  UNL1       -0.0826
     46 O           9.1030   21.2910   16.4410 O.2     1  UNL1       -0.1582
     47 O          11.3710   20.2760   17.0290 O.2     1  UNL1       -0.1582
     48 O          11.7780   18.0370   10.8100 O.2     1  UNL1       -0.3553
     49 O          11.7290   20.6290   12.7550 O.3     1  UNL1       -0.4842
     50 S          10.1030   20.8660   17.3940 S.O2    1  UNL1        0.0297
@<TRIPOS>BOND
     1    45    48   ar
     2    45    34   ar
     3    10    38    1
     4    48    33   ar
     5    20    38    1
     6    38    34    1
     7    38    22    1
     8    34    29   ar
     9     1    44    1
    10    33    29   ar
    11    33    44    1
    12    29    28    1
    13    44    49    1
    14    44    16    1
    15    49    32    1
    16     5    26    1
    17     3    24    1
    18    26    32   ar
    19    26    23   ar
    20    32    27   ar
    21    28    24   ar
    22    28    25   ar
    23    24    41   ar
    24     2    23    1
    25    23    40   ar
    26     6    27    1
    27    27    31   ar
    28     4    25    1
    29    25    42   ar
    30    41    13    1
    31    41    30   ar
    32    40    31   ar
    33    40    12    1
    34    31    35    1
    35     7    35    1
    36    42    30   ar
    37    42    14    1
    38    30    43    1
    39    46    50    2
    40    17    35    1
    41    35    36    1
    42    47    50    2
    43    50    39    1
    44    50    37    1
    45    21    43    1
    46    43    39    1
    47    43    15    1
    48    36    18    1
    49    36    37    1
    50    36     8    1
    51    39    11    1
    52    37     9    1
    53    37    19    1
