@<TRIPOS>MOLECULE
-33.67037
 50 53 0 0 0
SMALL
GASTEIGER

@<TRIPOS>ATOM
      1 H           2.0240   14.0290   23.7950 H       1  UNL1        0.0780
      2 H           2.4820   17.8300   26.8930 H       1  UNL1        0.0619
      3 H           6.2740   14.5150   20.2260 H       1  UNL1        0.0624
      4 H           2.7200   16.8910   20.8200 H       1  UNL1        0.0624
      5 H           2.0420   15.9100   25.4220 H       1  UNL1        0.0654
      6 H           6.1660   15.8910   24.2010 H       1  UNL1        0.0657
      7 H           7.7580   17.2580   25.5170 H       1  UNL1        0.0314
      8 H           8.1280   19.6980   24.9630 H       1  UNL1        0.0284
      9 H           6.2800   18.3030   22.9510 H       1  UNL1        0.0515
     10 H           3.3860   12.2620   17.9480 H       1  UNL1        0.0294
     11 H           8.6560   19.7410   20.2540 H       1  UNL1        0.1480
     12 H           4.7390   18.8180   27.0300 H       1  UNL1        0.0620
     13 H           7.5720   16.5660   19.8230 H       1  UNL1        0.0621
     14 H           4.0220   18.9370   20.4470 H       1  UNL1        0.0621
     15 H           6.0340   20.0390   19.7600 H       1  UNL1        0.0490
     16 H           2.2070   15.6200   23.0010 H       1  UNL1        0.0780
     17 H           7.1770   18.3900   26.7160 H       1  UNL1        0.0314
     18 H           6.3930   19.9390   24.8490 H       1  UNL1        0.0284
     19 H           8.0380   18.0150   23.1070 H       1  UNL1        0.0515
     20 H           5.0010   12.7160   18.5200 H       1  UNL1        0.0294
     21 H           7.0730   19.0590   18.7750 H       1  UNL1        0.0490
     22 H           3.8890   13.9550   17.9010 H       1  UNL1        0.0294
     23 C           3.2890   17.4130   26.2960 C.ar    1  UNL1       -0.0580
     24 C           5.7700   15.4790   20.2700 C.ar    1  UNL1       -0.0536
     25 C           3.7850   16.8070   20.6160 C.ar    1  UNL1       -0.0536
     26 C           3.0430   16.3290   25.4520 C.ar    1  UNL1       -0.0199
     27 C           5.3660   16.3280   24.7950 C.ar    1  UNL1       -0.0167
     28 C           4.4010   15.5520   20.5480 C.ar    1  UNL1       -0.0127
     29 C           3.6320   14.3380   20.7250 C.ar    1  UNL1        0.0503
     30 C           5.8920   17.9020   20.0960 C.ar    1  UNL1       -0.0319
     31 C           5.6220   17.4230   25.6300 C.ar    1  UNL1       -0.0439
     32 C           4.0780   15.8020   24.6810 C.ar    1  UNL1        0.1214
     33 C           2.9220   14.0010   21.8580 C.ar    1  UNL1        0.1823
     34 C           3.4290   13.2340   19.8540 C.ar    1  UNL1        0.0886
     35 C           7.0000   18.0310   25.6940 C.3     1  UNL1       -0.0260
     36 C           7.1860   19.1930   24.7160 C.3     1  UNL1       -0.0281
     37 C           7.2320   18.7400   23.2580 C.3     1  UNL1        0.0820
     38 C           3.9530   13.0300   18.4830 C.3     1  UNL1       -0.0185
     39 N           7.8150   19.3650   20.6930 N.3     1  UNL1       -0.1902
     40 C           4.5680   17.9650   26.3760 C.ar    1  UNL1       -0.0583
     41 C           6.5090   16.6440   20.0460 C.ar    1  UNL1       -0.0567
     42 C           4.5250   17.9720   20.3950 C.ar    1  UNL1       -0.0567
     43 C           6.6770   19.1530   19.7950 C.3     1  UNL1        0.0421
     44 C           2.6800   14.6450   23.1700 C.3     1  UNL1        0.1502
     45 N           2.6450   12.3060   20.4160 N.ar    1  UNL1       -0.0826
     46 O           6.3640   20.9410   22.0570 O.2     1  UNL1       -0.1582
     47 O           8.8310   20.6940   22.5190 O.2     1  UNL1       -0.1582
     48 O           2.3310   12.7900   21.6710 O.2     1  UNL1       -0.3553
     49 O           3.9530   14.7620   23.8030 O.3     1  UNL1       -0.4842
     50 S           7.5490   20.1220   22.1670 S.O2    1  UNL1        0.0297
@<TRIPOS>BOND
     1    22    38    1
     2    10    38    1
     3    38    20    1
     4    38    34    1
     5    21    43    1
     6    15    43    1
     7    43    30    1
     8    43    39    1
     9    13    41    1
    10    34    45   ar
    11    34    29   ar
    12    41    30   ar
    13    41    24   ar
    14    30    42   ar
    15     3    24    1
    16    11    39    1
    17    24    28   ar
    18    42    14    1
    19    42    25   ar
    20    45    48   ar
    21    28    25   ar
    22    28    29    1
    23    25     4    1
    24    39    50    1
    25    29    33   ar
    26    48    33   ar
    27    33    44    1
    28    46    50    2
    29    50    47    2
    30    50    37    1
    31     9    37    1
    32    16    44    1
    33    19    37    1
    34    44     1    1
    35    44    49    1
    36    37    36    1
    37    49    32    1
    38     6    27    1
    39    32    27   ar
    40    32    26   ar
    41    36    18    1
    42    36     8    1
    43    36    35    1
    44    27    31   ar
    45     5    26    1
    46    26    23   ar
    47     7    35    1
    48    31    35    1
    49    31    40   ar
    50    35    17    1
    51    23    40   ar
    52    23     2    1
    53    40    12    1
