@<TRIPOS>MOLECULE
-17.66970
 50 53 0 0 0
SMALL
GASTEIGER

@<TRIPOS>ATOM
      1 H           6.9620   15.1730   15.7330 H       1  UNL1        0.0780
      2 H          10.0730   18.2310   14.1200 H       1  UNL1        0.0619
      3 H           3.3860   17.2520   19.1290 H       1  UNL1        0.0624
      4 H           6.4040   17.0540   16.0440 H       1  UNL1        0.0624
      5 H           9.4810   15.8810   14.6520 H       1  UNL1        0.0654
      6 H           8.5870   17.0140   18.6990 H       1  UNL1        0.0657
      7 H           9.8910   20.4700   18.2820 H       1  UNL1        0.0314
      8 H           7.7690   20.9910   19.4980 H       1  UNL1        0.0284
      9 H           7.1930   20.5180   16.5300 H       1  UNL1        0.0515
     10 H           4.6440   15.0930   21.6950 H       1  UNL1        0.0294
     11 H           4.7990   22.6960   15.7610 H       1  UNL1        0.1480
     12 H           9.9220   19.9770   15.8570 H       1  UNL1        0.0620
     13 H           2.7500   19.4310   18.3380 H       1  UNL1        0.0621
     14 H           5.6700   19.1620   15.1960 H       1  UNL1        0.0621
     15 H           3.0670   21.3300   16.9300 H       1  UNL1        0.0490
     16 H           7.3660   13.5990   16.3460 H       1  UNL1        0.0780
     17 H           9.4200   19.2470   19.4350 H       1  UNL1        0.0314
     18 H           6.9960   19.5690   18.8130 H       1  UNL1        0.0284
     19 H           8.1370   21.8750   17.1310 H       1  UNL1        0.0515
     20 H           3.3610   15.5240   20.5640 H       1  UNL1        0.0294
     21 H           3.4100   20.8390   15.2880 H       1  UNL1        0.0490
     22 H           4.6490   16.6950   20.9700 H       1  UNL1        0.0294
     23 C           9.7290   17.9700   15.1180 C.ar    1  UNL1       -0.0580
     24 C           3.9400   17.6400   18.2840 C.ar    1  UNL1       -0.0536
     25 C           5.5840   17.5110   16.5730 C.ar    1  UNL1       -0.0536
     26 C           9.3920   16.6510   15.4130 C.ar    1  UNL1       -0.0199
     27 C           8.8960   17.2990   17.6950 C.ar    1  UNL1       -0.0167
     28 C           5.0140   16.9380   17.7170 C.ar    1  UNL1       -0.0127
     29 C           5.5100   15.6930   18.3340 C.ar    1  UNL1        0.0503
     30 C           4.1830   19.4870   16.7230 C.ar    1  UNL1       -0.0319
     31 C           9.2250   18.6310   17.4050 C.ar    1  UNL1       -0.0439
     32 C           8.9580   16.3260   16.6950 C.ar    1  UNL1        0.1214
     33 C           6.4480   14.8000   17.8210 C.ar    1  UNL1        0.1823
     34 C           5.2410   15.1330   19.6380 C.ar    1  UNL1        0.0886
     35 C           9.1370   19.6950   18.4740 C.3     1  UNL1       -0.0260
     36 C           7.7520   20.3380   18.6170 C.3     1  UNL1       -0.0281
     37 C           7.3520   21.1590   17.3970 C.3     1  UNL1        0.0820
     38 C           4.4290   15.6410   20.7710 C.3     1  UNL1       -0.0185
     39 N           4.9910   21.8150   16.2390 N.3     1  UNL1       -0.1902
     40 C           9.6440   18.9550   16.1060 C.ar    1  UNL1       -0.0583
     41 C           3.5420   18.8990   17.8120 C.ar    1  UNL1       -0.0567
     42 C           5.1670   18.7510   16.0690 C.ar    1  UNL1       -0.0567
     43 C           3.8440   20.8900   16.2940 C.3     1  UNL1        0.0421
     44 C           7.3200   14.6590   16.6280 C.3     1  UNL1        0.1502
     45 N           5.8720   13.9690   19.8190 N.ar    1  UNL1       -0.0826
     46 O           5.0940   21.6230   18.7790 O.2     1  UNL1       -0.1582
     47 O           6.2130   23.5210   17.5630 O.2     1  UNL1       -0.1582
     48 O           6.6210   13.7710   18.6970 O.2     1  UNL1       -0.3553
     49 O           8.6580   15.0300   17.0070 O.3     1  UNL1       -0.4842
     50 S           5.8530   22.1210   17.6550 S.O2    1  UNL1        0.0297
@<TRIPOS>BOND
     1     2    23    1
     2     5    26    1
     3    23    26   ar
     4    23    40   ar
     5    14    42    1
     6    21    43    1
     7    26    32   ar
     8     1    44    1
     9    11    39    1
    10    12    40    1
    11     4    25    1
    12    42    25   ar
    13    42    30   ar
    14    40    31   ar
    15    39    43    1
    16    39    50    1
    17    43    30    1
    18    43    15    1
    19    16    44    1
    20     9    37    1
    21    25    28   ar
    22    44    49    1
    23    44    33    1
    24    32    49    1
    25    32    27   ar
    26    30    41   ar
    27    19    37    1
    28    37    50    1
    29    37    36    1
    30    31    27   ar
    31    31    35    1
    32    47    50    2
    33    50    46    2
    34    27     6    1
    35    28    24   ar
    36    28    29    1
    37    41    24   ar
    38    41    13    1
    39    33    29   ar
    40    33    48   ar
    41     7    35    1
    42    24     3    1
    43    29    34   ar
    44    35    36    1
    45    35    17    1
    46    36    18    1
    47    36     8    1
    48    48    45   ar
    49    34    45   ar
    50    34    38    1
    51    20    38    1
    52    38    22    1
    53    38    10    1
