@<TRIPOS>MOLECULE
-28.86040
 50 53 0 0 0
SMALL
GASTEIGER

@<TRIPOS>ATOM
      1 H          -4.9520   14.6120   16.8530 H       1  UNL1        0.0780
      2 H          -6.1610   11.7060   20.4940 H       1  UNL1        0.0619
      3 H          -2.4010   16.0330   15.0700 H       1  UNL1        0.0624
      4 H          -3.7120   18.5470   18.3200 H       1  UNL1        0.0624
      5 H          -7.0120   13.5000   19.0120 H       1  UNL1        0.0654
      6 H          -3.4660   15.8050   19.7640 H       1  UNL1        0.0657
      7 H          -2.1500   13.4470   22.3180 H       1  UNL1        0.0314
      8 H          -1.2200   14.1050   19.4610 H       1  UNL1        0.0284
      9 H           1.0450   13.2640   20.5000 H       1  UNL1        0.0515
     10 H          -5.0480   20.1080   13.8780 H       1  UNL1        0.0294
     11 H           1.8080   15.2680   18.7050 H       1  UNL1        0.1480
     12 H          -3.9630   11.9370   21.5990 H       1  UNL1        0.0620
     13 H          -0.1750   15.8530   16.1080 H       1  UNL1        0.0621
     14 H          -1.4880   18.3650   19.3610 H       1  UNL1        0.0621
     15 H           0.8670   17.7980   19.1670 H       1  UNL1        0.0490
     16 H          -6.7170   14.8760   16.9010 H       1  UNL1        0.0780
     17 H          -2.0860   15.0900   21.7240 H       1  UNL1        0.0314
     18 H          -1.1730   12.5480   20.2690 H       1  UNL1        0.0284
     19 H           0.3630   13.7310   22.0650 H       1  UNL1        0.0515
     20 H          -3.5500   19.1650   13.8110 H       1  UNL1        0.0294
     21 H           1.4640   17.1600   17.6640 H       1  UNL1        0.0490
     22 H          -3.9210   20.1480   15.2420 H       1  UNL1        0.0294
     23 C          -5.5640   12.5980   20.3240 C.ar    1  UNL1       -0.0580
     24 C          -2.2050   16.5530   16.0050 C.ar    1  UNL1       -0.0536
     25 C          -2.9370   17.9680   17.8220 C.ar    1  UNL1       -0.0536
     26 C          -6.0390   13.6050   19.4830 C.ar    1  UNL1       -0.0199
     27 C          -4.0460   14.9000   19.9230 C.ar    1  UNL1       -0.0167
     28 C          -3.2070   17.3080   16.6200 C.ar    1  UNL1       -0.0127
     29 C          -4.5130   17.4090   16.0170 C.ar    1  UNL1        0.0503
     30 C          -0.6600   17.1150   17.7980 C.ar    1  UNL1       -0.0319
     31 C          -3.5560   13.8900   20.7610 C.ar    1  UNL1       -0.0439
     32 C          -5.2660   14.7430   19.2710 C.ar    1  UNL1        0.1214
     33 C          -5.5590   16.5460   16.2580 C.ar    1  UNL1        0.1823
     34 C          -5.0360   18.3410   15.0870 C.ar    1  UNL1        0.0886
     35 C          -2.2000   14.0500   21.4030 C.3     1  UNL1       -0.0260
     36 C          -1.0850   13.6290   20.4400 C.3     1  UNL1       -0.0281
     37 C           0.3080   13.9140   20.9870 C.3     1  UNL1        0.0820
     38 C          -4.3550   19.5030   14.4710 C.3     1  UNL1       -0.0185
     39 N           0.9180   15.6590   19.0210 N.3     1  UNL1       -0.1902
     40 C          -4.3220   12.7350   20.9530 C.ar    1  UNL1       -0.0583
     41 C          -0.9410   16.4550   16.5930 C.ar    1  UNL1       -0.0567
     42 C          -1.6730   17.8660   18.4110 C.ar    1  UNL1       -0.0567
     43 C           0.7010   16.9980   18.4360 C.3     1  UNL1        0.0421
     44 C          -5.7420   15.3360   17.0930 C.3     1  UNL1        0.1502
     45 N          -6.3060   18.0540   14.7740 N.ar    1  UNL1       -0.0826
     46 O          -0.1130   16.5250   21.1930 O.2     1  UNL1       -0.1582
     47 O           2.2590   15.6750   21.1180 O.2     1  UNL1       -0.1582
     48 O          -6.6320   16.9320   15.5140 O.2     1  UNL1       -0.3553
     49 O          -5.6820   15.7610   18.4590 O.3     1  UNL1       -0.4842
     50 S           0.8750   15.5910   20.7070 S.O2    1  UNL1        0.0297
@<TRIPOS>BOND
     1    20    38    1
     2    10    38    1
     3    38    34    1
     4    38    22    1
     5    45    34   ar
     6    45    48   ar
     7     3    24    1
     8    34    29   ar
     9    48    33   ar
    10    24    41   ar
    11    24    28   ar
    12    29    33   ar
    13    29    28    1
    14    13    41    1
    15    33    44    1
    16    41    30   ar
    17    28    25   ar
    18     1    44    1
    19    16    44    1
    20    44    49    1
    21    21    43    1
    22    30    42   ar
    23    30    43    1
    24    25     4    1
    25    25    42   ar
    26    42    14    1
    27    43    39    1
    28    43    15    1
    29    49    32    1
    30    11    39    1
    31     5    26    1
    32    39    50    1
    33    32    26   ar
    34    32    27   ar
    35     8    36    1
    36    26    23   ar
    37     6    27    1
    38    27    31   ar
    39    18    36    1
    40    23     2    1
    41    23    40   ar
    42    36    37    1
    43    36    35    1
    44     9    37    1
    45    50    37    1
    46    50    47    2
    47    50    46    2
    48    31    40   ar
    49    31    35    1
    50    40    12    1
    51    37    19    1
    52    35    17    1
    53    35     7    1
