@<TRIPOS>MOLECULE
-32.00926
 50 53 0 0 0
SMALL
GASTEIGER

@<TRIPOS>ATOM
      1 H           6.3630   15.9420   14.3300 H       1  UNL1        0.0780
      2 H          10.6470   19.4070   13.4130 H       1  UNL1        0.0619
      3 H           9.9050   17.2420   16.6850 H       1  UNL1        0.0624
      4 H           6.2220   15.0210   17.0440 H       1  UNL1        0.0624
      5 H          10.0640   17.0540   12.8740 H       1  UNL1        0.0654
      6 H           5.8880   18.0170   13.1400 H       1  UNL1        0.0657
      7 H           5.1650   20.2130   13.5900 H       1  UNL1        0.0314
      8 H           5.3960   22.0790   15.2060 H       1  UNL1        0.0284
      9 H           6.6260   19.4730   16.2500 H       1  UNL1        0.0515
     10 H          11.1870   12.9830   17.0640 H       1  UNL1        0.0294
     11 H           4.8270   20.1220   19.5720 H       1  UNL1        0.1480
     12 H           8.8670   21.0630   13.8250 H       1  UNL1        0.0620
     13 H           9.0450   18.9240   18.2590 H       1  UNL1        0.0621
     14 H           5.3520   16.7180   18.5990 H       1  UNL1        0.0621
     15 H           7.3970   19.5990   19.9210 H       1  UNL1        0.0490
     16 H           6.4980   14.5380   13.2840 H       1  UNL1        0.0780
     17 H           6.2550   21.4620   13.0190 H       1  UNL1        0.0314
     18 H           7.1190   21.7930   15.3540 H       1  UNL1        0.0284
     19 H           4.8830   19.8480   16.1630 H       1  UNL1        0.0515
     20 H          10.0660   13.9040   18.0750 H       1  UNL1        0.0294
     21 H           6.1740   18.4530   20.3710 H       1  UNL1        0.0490
     22 H          11.3520   14.7440   17.1850 H       1  UNL1        0.0294
     23 C           9.6050   19.1010   13.3730 C.ar    1  UNL1       -0.0580
     24 C           8.9130   17.1110   17.1110 C.ar    1  UNL1       -0.0536
     25 C           6.8440   15.8760   17.3000 C.ar    1  UNL1       -0.0536
     26 C           9.2800   17.7810   13.0720 C.ar    1  UNL1       -0.0199
     27 C           6.9260   18.3250   13.2340 C.ar    1  UNL1       -0.0167
     28 C           8.1250   16.0130   16.7550 C.ar    1  UNL1       -0.0127
     29 C           8.6400   15.0160   15.8450 C.ar    1  UNL1        0.0503
     30 C           7.1410   17.9340   18.5570 C.ar    1  UNL1       -0.0319
     31 C           7.2430   19.6560   13.5410 C.ar    1  UNL1       -0.0439
     32 C           7.9440   17.3930   13.0240 C.ar    1  UNL1        0.1214
     33 C           8.1530   14.7710   14.5800 C.ar    1  UNL1        0.1823
     34 C           9.7200   14.1060   15.9830 C.ar    1  UNL1        0.0886
     35 C           6.1470   20.6690   13.7700 C.3     1  UNL1       -0.0260
     36 C           6.1610   21.2930   15.1680 C.3     1  UNL1       -0.0281
     37 C           5.8860   20.2730   16.2700 C.3     1  UNL1        0.0820
     38 C          10.6300   13.9230   17.1370 C.3     1  UNL1       -0.0185
     39 N           5.5380   19.7970   18.9150 N.3     1  UNL1       -0.1902
     40 C           8.5930   20.0330   13.6070 C.ar    1  UNL1       -0.0583
     41 C           8.4240   18.0660   18.0070 C.ar    1  UNL1       -0.0567
     42 C           6.3540   16.8330   18.1900 C.ar    1  UNL1       -0.0567
     43 C           6.6000   18.9730   19.5030 C.3     1  UNL1        0.0421
     44 C           7.0730   15.3480   13.7440 C.3     1  UNL1        0.1502
     45 N           9.8610   13.3490   14.8870 N.ar    1  UNL1       -0.0826
     46 O           7.3400   21.4250   18.1720 O.2     1  UNL1       -0.1582
     47 O           4.8920   22.0020   17.9830 O.2     1  UNL1       -0.1582
     48 O           8.8780   13.7690   14.0110 O.2     1  UNL1       -0.3553
     49 O           7.6690   16.0990   12.6760 O.3     1  UNL1       -0.4842
     50 S           5.9750   21.0470   17.8840 S.O2    1  UNL1        0.0297
@<TRIPOS>BOND
     1    49    32    1
     2    49    44    1
     3     5    26    1
     4    17    35    1
     5    32    26   ar
     6    32    27   ar
     7    26    23   ar
     8     6    27    1
     9    27    31   ar
    10    16    44    1
    11    23     2    1
    12    23    40   ar
    13    31    40   ar
    14    31    35    1
    15     7    35    1
    16    40    12    1
    17    44     1    1
    18    44    33    1
    19    35    36    1
    20    48    33   ar
    21    48    45   ar
    22    33    29   ar
    23    45    34   ar
    24    36     8    1
    25    36    18    1
    26    36    37    1
    27    29    34   ar
    28    29    28    1
    29    34    38    1
    30    19    37    1
    31     9    37    1
    32    37    50    1
    33     3    24    1
    34    28    24   ar
    35    28    25   ar
    36     4    25    1
    37    10    38    1
    38    24    41   ar
    39    38    22    1
    40    38    20    1
    41    25    42   ar
    42    50    47    2
    43    50    46    2
    44    50    39    1
    45    41    13    1
    46    41    30   ar
    47    42    30   ar
    48    42    14    1
    49    30    43    1
    50    39    43    1
    51    39    11    1
    52    43    15    1
    53    43    21    1
