@<TRIPOS>MOLECULE
-28.98897
 50 53 0 0 0
SMALL
GASTEIGER

@<TRIPOS>ATOM
      1 H          10.2750   14.9480   23.5770 H       1  UNL1        0.0780
      2 H          14.2390   17.0090   23.0900 H       1  UNL1        0.0619
      3 H           5.9070   17.6510   24.0580 H       1  UNL1        0.0624
      4 H           8.6730   15.4120   21.6170 H       1  UNL1        0.0624
      5 H          12.4570   15.6620   24.1110 H       1  UNL1        0.0654
      6 H           9.8930   19.1160   24.2080 H       1  UNL1        0.0657
      7 H          12.5400   21.4480   23.4900 H       1  UNL1        0.0314
      8 H          12.3200   20.8940   21.0660 H       1  UNL1        0.0284
      9 H          10.1130   19.6170   21.1380 H       1  UNL1        0.0515
     10 H           4.3070   13.7000   24.5440 H       1  UNL1        0.0294
     11 H           7.3180   21.7150   19.8670 H       1  UNL1        0.1480
     12 H          13.8950   19.4080   22.6250 H       1  UNL1        0.0620
     13 H           5.9280   19.4690   22.4100 H       1  UNL1        0.0621
     14 H           8.7190   17.2370   19.9900 H       1  UNL1        0.0621
     15 H           6.4250   19.5610   19.5080 H       1  UNL1        0.0490
     16 H          10.4410   14.7460   25.3460 H       1  UNL1        0.0780
     17 H          10.8230   21.2900   23.7230 H       1  UNL1        0.0314
     18 H          11.4620   22.3500   21.5390 H       1  UNL1        0.0284
     19 H          10.2140   20.9140   19.9250 H       1  UNL1        0.0515
     20 H           4.6430   14.7160   23.1370 H       1  UNL1        0.0294
     21 H           8.1580   19.4390   19.3280 H       1  UNL1        0.0490
     22 H           4.3470   15.4640   24.7200 H       1  UNL1        0.0294
     23 C          13.2810   17.4700   23.3200 C.ar    1  UNL1       -0.0580
     24 C           6.5090   17.5390   23.1590 C.ar    1  UNL1       -0.0536
     25 C           8.0710   16.2980   21.8040 C.ar    1  UNL1       -0.0536
     26 C          12.2610   16.7070   23.8920 C.ar    1  UNL1       -0.0199
     27 C          10.8500   18.6630   23.9480 C.ar    1  UNL1       -0.0167
     28 C           7.2920   16.3980   22.9610 C.ar    1  UNL1       -0.0127
     29 C           7.3090   15.3440   23.9520 C.ar    1  UNL1        0.0503
     30 C           7.3400   18.5040   21.0850 C.ar    1  UNL1       -0.0319
     31 C          11.8670   19.4400   23.3770 C.ar    1  UNL1       -0.0439
     32 C          11.0360   17.3000   24.1920 C.ar    1  UNL1        0.1214
     33 C           8.4410   14.9010   24.6060 C.ar    1  UNL1        0.1823
     34 C           6.2630   14.5680   24.5150 C.ar    1  UNL1        0.0886
     35 C          11.6550   20.9120   23.1200 C.3     1  UNL1       -0.0260
     36 C          11.4590   21.2580   21.6390 C.3     1  UNL1       -0.0281
     37 C          10.1890   20.6970   20.9980 C.3     1  UNL1        0.0820
     38 C           4.8140   14.6130   24.2130 C.3     1  UNL1       -0.0185
     39 N           7.5070   20.9860   20.5550 N.3     1  UNL1       -0.1902
     40 C          13.0850   18.8270   23.0590 C.ar    1  UNL1       -0.0583
     41 C           6.5250   18.5780   22.2220 C.ar    1  UNL1       -0.0567
     42 C           8.0950   17.3410   20.8750 C.ar    1  UNL1       -0.0567
     43 C           7.3670   19.6130   20.0680 C.3     1  UNL1        0.0421
     44 C           9.8810   15.2540   24.5540 C.3     1  UNL1        0.1502
     45 N           6.7330   13.6990   25.4200 N.ar    1  UNL1       -0.0826
     46 O           8.3810   20.9220   22.9320 O.2     1  UNL1       -0.1582
     47 O           8.8030   22.8920   21.4300 O.2     1  UNL1       -0.1582
     48 O           8.0970   13.9130   25.4750 O.2     1  UNL1       -0.3553
     49 O           9.9660   16.6630   24.7540 O.3     1  UNL1       -0.4842
     50 S           8.6940   21.4620   21.6310 S.O2    1  UNL1        0.0297
@<TRIPOS>BOND
     1    21    43    1
     2    15    43    1
     3    11    39    1
     4    19    37    1
     5    14    42    1
     6    43    39    1
     7    43    30    1
     8    39    50    1
     9    42    30   ar
    10    42    25   ar
    11    37     9    1
    12    37    50    1
    13    37    36    1
    14     8    36    1
    15    30    41   ar
    16    47    50    2
    17    18    36    1
    18     4    25    1
    19    50    46    2
    20    36    35    1
    21    25    28   ar
    22    41    13    1
    23    41    24   ar
    24    12    40    1
    25    28    24   ar
    26    28    29    1
    27    40    23   ar
    28    40    31   ar
    29     2    23    1
    30    35    31    1
    31    35     7    1
    32    35    17    1
    33    20    38    1
    34    24     3    1
    35    23    26   ar
    36    31    27   ar
    37     1    44    1
    38    26     5    1
    39    26    32   ar
    40    27    32   ar
    41    27     6    1
    42    29    34   ar
    43    29    33   ar
    44    32    49    1
    45    38    34    1
    46    38    10    1
    47    38    22    1
    48    34    45   ar
    49    44    33    1
    50    44    49    1
    51    44    16    1
    52    33    48   ar
    53    45    48   ar
