@<TRIPOS>MOLECULE
-31.88100
 50 53 0 0 0
SMALL
GASTEIGER

@<TRIPOS>ATOM
      1 H           5.2650   12.8960   18.0250 H       1  UNL1        0.0780
      2 H           3.6370   17.9430   16.1870 H       1  UNL1        0.0619
      3 H           7.8330   12.9680   19.6810 H       1  UNL1        0.0624
      4 H           7.1230   16.7830   17.7940 H       1  UNL1        0.0624
      5 H           4.7040   15.9250   15.2120 H       1  UNL1        0.0654
      6 H           3.0190   13.5130   18.3390 H       1  UNL1        0.0657
      7 H           1.6570   14.4480   20.0070 H       1  UNL1        0.0314
      8 H           1.5450   16.2350   21.7180 H       1  UNL1        0.0284
      9 H           4.3600   15.8960   20.5530 H       1  UNL1        0.0515
     10 H          10.7500   14.9350   15.7150 H       1  UNL1        0.0294
     11 H           5.7290   16.0830   24.1310 H       1  UNL1        0.1480
     12 H           2.2800   17.7610   18.2380 H       1  UNL1        0.0620
     13 H           7.4830   13.9970   21.8900 H       1  UNL1        0.0621
     14 H           6.7920   17.8160   20.0020 H       1  UNL1        0.0621
     15 H           6.9830   17.7010   22.4230 H       1  UNL1        0.0490
     16 H           5.4430   11.7800   16.6790 H       1  UNL1        0.0780
     17 H           0.7160   15.8250   19.4650 H       1  UNL1        0.0314
     18 H           2.2960   17.3840   20.6290 H       1  UNL1        0.0284
     19 H           3.5830   14.8360   21.7610 H       1  UNL1        0.0515
     20 H          10.6150   14.7140   17.4670 H       1  UNL1        0.0294
     21 H           7.7570   16.3080   23.1080 H       1  UNL1        0.0490
     22 H           9.8740   16.1270   16.6870 H       1  UNL1        0.0294
     23 C           3.5180   16.9780   16.6710 C.ar    1  UNL1       -0.0580
     24 C           7.6010   14.0290   19.7430 C.ar    1  UNL1       -0.0536
     25 C           7.2160   16.1690   18.6870 C.ar    1  UNL1       -0.0536
     26 C           4.1190   15.8460   16.1240 C.ar    1  UNL1       -0.0199
     27 C           3.1800   14.4910   17.8950 C.ar    1  UNL1       -0.0167
     28 C           7.5040   14.8060   18.5850 C.ar    1  UNL1       -0.0127
     29 C           7.7220   14.2060   17.2900 C.ar    1  UNL1        0.0503
     30 C           7.1300   15.9840   21.1090 C.ar    1  UNL1       -0.0319
     31 C           2.5770   15.6250   18.4590 C.ar    1  UNL1       -0.0439
     32 C           3.9660   14.6110   16.7480 C.ar    1  UNL1        0.1214
     33 C           6.8340   13.3750   16.6440 C.ar    1  UNL1        0.1823
     34 C           8.8220   14.3000   16.4010 C.ar    1  UNL1        0.0886
     35 C           1.7360   15.5000   19.7070 C.3     1  UNL1       -0.0260
     36 C           2.2600   16.3200   20.8900 C.3     1  UNL1       -0.0281
     37 C           3.6340   15.8550   21.3660 C.3     1  UNL1        0.0820
     38 C          10.0820   15.0590   16.5750 C.3     1  UNL1       -0.0185
     39 N           5.6800   16.1720   23.1150 N.3     1  UNL1       -0.1902
     40 C           2.7520   16.8680   17.8330 C.ar    1  UNL1       -0.0583
     41 C           7.4100   14.6140   20.9970 C.ar    1  UNL1       -0.0567
     42 C           7.0290   16.7550   19.9420 C.ar    1  UNL1       -0.0567
     43 C           6.9200   16.6080   22.4630 C.3     1  UNL1        0.0421
     44 C           5.4880   12.8400   16.9540 C.3     1  UNL1        0.1502
     45 N           8.6210   13.5650   15.3000 N.ar    1  UNL1       -0.0826
     46 O           4.5450   18.2240   22.1430 O.2     1  UNL1       -0.1582
     47 O           3.3750   16.7510   23.8230 O.2     1  UNL1       -0.1582
     48 O           7.3730   12.9900   15.4540 O.2     1  UNL1       -0.3553
     49 O           4.5330   13.5270   16.1370 O.3     1  UNL1       -0.4842
     50 S           4.2410   16.9150   22.6750 S.O2    1  UNL1        0.0297
@<TRIPOS>BOND
     1     5    26    1
     2    45    48   ar
     3    45    34   ar
     4    48    33   ar
     5    10    38    1
     6    26    23   ar
     7    26    32   ar
     8    49    32    1
     9    49    44    1
    10     2    23    1
    11    34    38    1
    12    34    29   ar
    13    38    22    1
    14    38    20    1
    15    33    44    1
    16    33    29   ar
    17    23    40   ar
    18    16    44    1
    19    32    27   ar
    20    44     1    1
    21    29    28    1
    22     4    25    1
    23    40    12    1
    24    40    31   ar
    25    27     6    1
    26    27    31   ar
    27    31    35    1
    28    28    25   ar
    29    28    24   ar
    30    25    42   ar
    31    17    35    1
    32     3    24    1
    33    35     7    1
    34    35    36    1
    35    24    41   ar
    36    42    14    1
    37    42    30   ar
    38     9    37    1
    39    18    36    1
    40    36    37    1
    41    36     8    1
    42    41    30   ar
    43    41    13    1
    44    30    43    1
    45    37    19    1
    46    37    50    1
    47    46    50    2
    48    15    43    1
    49    43    21    1
    50    43    39    1
    51    50    39    1
    52    50    47    2
    53    39    11    1
