@<TRIPOS>MOLECULE
-27.74730
 50 53 0 0 0
SMALL
GASTEIGER

@<TRIPOS>ATOM
      1 H           9.4160   16.1130   14.4040 H       1  UNL1        0.0780
      2 H          11.1410   12.0870   16.1940 H       1  UNL1        0.0619
      3 H          10.0010   19.1820   14.1480 H       1  UNL1        0.0624
      4 H           7.0510   18.5280   17.2270 H       1  UNL1        0.0624
      5 H           9.3540   13.0150   14.7440 H       1  UNL1        0.0654
      6 H           8.4460   15.9550   17.7320 H       1  UNL1        0.0657
      7 H          10.3360   14.5260   20.3390 H       1  UNL1        0.0314
      8 H          12.5180   15.3170   19.7000 H       1  UNL1        0.0284
      9 H          11.0490   17.2330   17.8700 H       1  UNL1        0.0515
     10 H           5.0300   20.4790   13.4710 H       1  UNL1        0.0294
     11 H          12.0940   19.7370   20.2880 H       1  UNL1        0.1480
     12 H          11.6120   13.1010   18.3980 H       1  UNL1        0.0620
     13 H          11.5530   20.0880   15.8230 H       1  UNL1        0.0621
     14 H           8.6100   19.4310   18.9110 H       1  UNL1        0.0621
     15 H          10.5940   21.0870   19.1590 H       1  UNL1        0.0490
     16 H           8.3220   15.1440   13.3870 H       1  UNL1        0.0780
     17 H           9.5540   15.9850   19.7800 H       1  UNL1        0.0314
     18 H          11.6960   16.6370   20.5070 H       1  UNL1        0.0284
     19 H          12.5410   16.3280   17.6220 H       1  UNL1        0.0515
     20 H           6.6850   21.0110   13.8080 H       1  UNL1        0.0294
     21 H          11.9260   21.0120   18.0490 H       1  UNL1        0.0490
     22 H           5.6340   20.4750   15.1350 H       1  UNL1        0.0294
     23 C          10.5610   12.9440   16.5280 C.ar    1  UNL1       -0.0580
     24 C           9.6870   19.2310   15.1890 C.ar    1  UNL1       -0.0536
     25 C           8.0360   18.8700   16.9140 C.ar    1  UNL1       -0.0536
     26 C           9.5600   13.4680   15.7090 C.ar    1  UNL1       -0.0199
     27 C           9.0520   15.1130   17.4060 C.ar    1  UNL1       -0.0167
     28 C           8.4190   18.7890   15.5720 C.ar    1  UNL1       -0.0127
     29 C           7.5000   18.2790   14.5820 C.ar    1  UNL1        0.0503
     30 C          10.1910   19.8390   17.4910 C.ar    1  UNL1       -0.0319
     31 C          10.0710   14.6100   18.2250 C.ar    1  UNL1       -0.0439
     32 C           8.8240   14.5640   16.1490 C.ar    1  UNL1        0.1214
     33 C           7.5270   17.0070   14.0530 C.ar    1  UNL1        0.1823
     34 C           6.4100   18.9060   13.9260 C.ar    1  UNL1        0.0886
     35 C          10.3610   15.2800   19.5420 C.3     1  UNL1       -0.0260
     36 C          11.6940   16.0340   19.5910 C.3     1  UNL1       -0.0281
     37 C          11.9640   16.8970   18.3600 C.3     1  UNL1        0.0820
     38 C           5.9120   20.2900   14.0920 C.3     1  UNL1       -0.0185
     39 N          11.7650   19.3820   19.3900 N.3     1  UNL1       -0.1902
     40 C          10.8210   13.5160   17.7770 C.ar    1  UNL1       -0.0583
     41 C          10.5660   19.7530   16.1420 C.ar    1  UNL1       -0.0567
     42 C           8.9190   19.3850   17.8690 C.ar    1  UNL1       -0.0567
     43 C          11.1500   20.3930   18.5160 C.3     1  UNL1        0.0421
     44 C           8.3710   15.8080   14.2570 C.3     1  UNL1        0.1502
     45 N           5.8240   18.0750   13.0550 N.ar    1  UNL1       -0.0826
     46 O          13.8370   18.0590   19.8120 O.2     1  UNL1       -0.1582
     47 O          13.4080   18.9470   17.4970 O.2     1  UNL1       -0.1582
     48 O           6.5230   16.8850   13.1420 O.2     1  UNL1       -0.3553
     49 O           7.8320   15.1190   15.3910 O.3     1  UNL1       -0.4842
     50 S          12.9280   18.3600   18.7270 S.O2    1  UNL1        0.0297
@<TRIPOS>BOND
     1    45    48   ar
     2    45    34   ar
     3    48    33   ar
     4    16    44    1
     5    10    38    1
     6    20    38    1
     7    34    38    1
     8    34    29   ar
     9    33    44    1
    10    33    29   ar
    11    38    22    1
    12     3    24    1
    13    44     1    1
    14    44    49    1
    15    29    28    1
    16     5    26    1
    17    24    28   ar
    18    24    41   ar
    19    49    32    1
    20    28    25   ar
    21    26    32   ar
    22    26    23   ar
    23    13    41    1
    24    41    30   ar
    25    32    27   ar
    26     2    23    1
    27    23    40   ar
    28    25     4    1
    29    25    42   ar
    30    27     6    1
    31    27    31   ar
    32    30    42   ar
    33    30    43    1
    34    47    50    2
    35    19    37    1
    36    40    31   ar
    37    40    12    1
    38    42    14    1
    39     9    37    1
    40    21    43    1
    41    31    35    1
    42    37    50    1
    43    37    36    1
    44    43    15    1
    45    43    39    1
    46    50    39    1
    47    50    46    2
    48    39    11    1
    49    35    36    1
    50    35    17    1
    51    35     7    1
    52    36     8    1
    53    36    18    1
