@<TRIPOS>MOLECULE
-31.66832
 50 53 0 0 0
SMALL
GASTEIGER

@<TRIPOS>ATOM
      1 H           7.7670   14.3790   13.9890 H       1  UNL1        0.0780
      2 H           7.6510   12.6300   18.7580 H       1  UNL1        0.0619
      3 H           8.4550   19.7420   15.0330 H       1  UNL1        0.0624
      4 H           5.1730   17.0770   15.8940 H       1  UNL1        0.0624
      5 H           7.4830   13.3110   16.4040 H       1  UNL1        0.0654
      6 H           9.9440   16.7420   17.2180 H       1  UNL1        0.0657
      7 H          11.4070   16.3190   19.4510 H       1  UNL1        0.0314
      8 H           9.7510   18.2230   19.2110 H       1  UNL1        0.0284
      9 H           8.6810   17.1000   21.8650 H       1  UNL1        0.0515
     10 H           6.2260   19.8320   11.2850 H       1  UNL1        0.0294
     11 H           8.3220   20.9660   19.8790 H       1  UNL1        0.1480
     12 H           8.9640   13.9600   20.3650 H       1  UNL1        0.0620
     13 H           8.2840   20.6810   17.2950 H       1  UNL1        0.0621
     14 H           5.0200   17.9900   18.1600 H       1  UNL1        0.0621
     15 H           5.8510   19.3210   19.8830 H       1  UNL1        0.0490
     16 H           6.6240   15.0580   15.1810 H       1  UNL1        0.0780
     17 H          10.5040   15.7130   20.8220 H       1  UNL1        0.0314
     18 H          10.6460   18.2000   20.7180 H       1  UNL1        0.0284
     19 H           7.7420   17.2410   20.3680 H       1  UNL1        0.0515
     20 H           7.4410   20.3690   12.4590 H       1  UNL1        0.0294
     21 H           6.0640   20.9470   19.2520 H       1  UNL1        0.0490
     22 H           5.7520   20.1490   12.9580 H       1  UNL1        0.0294
     23 C           8.1420   13.5410   18.4260 C.ar    1  UNL1       -0.0580
     24 C           7.6910   19.3630   15.7080 C.ar    1  UNL1       -0.0536
     25 C           5.8640   17.8620   16.1930 C.ar    1  UNL1       -0.0536
     26 C           8.0400   13.9390   17.0910 C.ar    1  UNL1       -0.0199
     27 C           9.4340   15.8480   17.5720 C.ar    1  UNL1       -0.0167
     28 C           6.8300   18.3390   15.3020 C.ar    1  UNL1       -0.0127
     29 C           6.9530   17.7640   13.9800 C.ar    1  UNL1        0.0503
     30 C           6.6510   19.3970   17.9080 C.ar    1  UNL1       -0.0319
     31 C           9.5470   15.4570   18.9140 C.ar    1  UNL1       -0.0439
     32 C           8.6720   15.1060   16.6660 C.ar    1  UNL1        0.1214
     33 C           7.2570   16.4420   13.7310 C.ar    1  UNL1        0.1823
     34 C           6.8490   18.3410   12.6890 C.ar    1  UNL1        0.0886
     35 C          10.3950   16.2540   19.8730 C.3     1  UNL1       -0.0260
     36 C           9.8760   17.6670   20.1470 C.3     1  UNL1       -0.0281
     37 C           8.5720   17.6710   20.9370 C.3     1  UNL1        0.0820
     38 C           6.5510   19.7460   12.3270 C.3     1  UNL1       -0.0185
     39 N           7.8260   20.0810   19.9720 N.3     1  UNL1       -0.1902
     40 C           8.8870   14.2970   19.3330 C.ar    1  UNL1       -0.0583
     41 C           7.5980   19.8910   17.0000 C.ar    1  UNL1       -0.0567
     42 C           5.7770   18.3850   17.4850 C.ar    1  UNL1       -0.0567
     43 C           6.5300   19.9570   19.3060 C.3     1  UNL1        0.0421
     44 C           7.5240   15.2620   14.5890 C.3     1  UNL1        0.1502
     45 N           7.0530   17.4290   11.7300 N.ar    1  UNL1       -0.0826
     46 O           6.8150   19.2490   22.1310 O.2     1  UNL1       -0.1582
     47 O           9.2200   19.9860   22.0260 O.2     1  UNL1       -0.1582
     48 O           7.3100   16.2400   12.3880 O.2     1  UNL1       -0.3553
     49 O           8.6540   15.5980   15.3930 O.3     1  UNL1       -0.4842
     50 S           8.0790   19.3220   21.4330 S.O2    1  UNL1        0.0297
@<TRIPOS>BOND
     1    10    38    1
     2    45    48   ar
     3    45    34   ar
     4    38    20    1
     5    38    34    1
     6    38    22    1
     7    48    33   ar
     8    34    29   ar
     9    33    29   ar
    10    33    44    1
    11    29    28    1
    12     1    44    1
    13    44    16    1
    14    44    49    1
    15     3    24    1
    16    28    24   ar
    17    28    25   ar
    18    49    32    1
    19    24    41   ar
    20     4    25    1
    21    25    42   ar
    22     5    26    1
    23    32    26   ar
    24    32    27   ar
    25    41    13    1
    26    41    30   ar
    27    26    23   ar
    28     6    27    1
    29    42    30   ar
    30    42    14    1
    31    27    31   ar
    32    30    43    1
    33    23     2    1
    34    23    40   ar
    35    31    40   ar
    36    31    35    1
    37     8    36    1
    38    21    43    1
    39    43    15    1
    40    43    39    1
    41    40    12    1
    42     7    35    1
    43    35    36    1
    44    35    17    1
    45    11    39    1
    46    39    50    1
    47    36    18    1
    48    36    37    1
    49    19    37    1
    50    37    50    1
    51    37     9    1
    52    50    47    2
    53    50    46    2
