@<TRIPOS>MOLECULE
-29.45938
 50 53 0 0 0
SMALL
GASTEIGER

@<TRIPOS>ATOM
      1 H          12.8890   21.9110   20.7370 H       1  UNL1        0.0780
      2 H          10.6640   19.8170   17.6250 H       1  UNL1        0.0619
      3 H          12.0250   27.0640   20.9540 H       1  UNL1        0.0624
      4 H          11.0230   22.9100   21.5810 H       1  UNL1        0.0624
      5 H          12.5110   20.5180   19.0820 H       1  UNL1        0.0654
      6 H          12.4400   24.4340   17.3020 H       1  UNL1        0.0657
      7 H          10.2150   23.4020   14.5810 H       1  UNL1        0.0314
      8 H           8.4680   23.9220   16.4420 H       1  UNL1        0.0284
      9 H           9.9400   26.6150   16.3760 H       1  UNL1        0.0515
     10 H          14.3060   26.7960   24.2470 H       1  UNL1        0.0294
     11 H           6.4220   25.1530   18.4540 H       1  UNL1        0.1480
     12 H           9.6910   21.3840   15.9860 H       1  UNL1        0.0620
     13 H           9.7140   27.5160   20.3000 H       1  UNL1        0.0621
     14 H           8.7430   23.3480   20.8210 H       1  UNL1        0.0621
     15 H           7.3280   26.7630   20.3340 H       1  UNL1        0.0490
     16 H          14.6270   21.8940   20.3860 H       1  UNL1        0.0780
     17 H          11.1740   24.7210   15.2090 H       1  UNL1        0.0314
     18 H           8.6120   25.0280   15.0840 H       1  UNL1        0.0284
     19 H          10.0070   25.5370   17.7720 H       1  UNL1        0.0515
     20 H          12.6040   26.6550   23.7950 H       1  UNL1        0.0294
     21 H           6.9620   25.1040   20.6720 H       1  UNL1        0.0490
     22 H          13.7290   27.5540   22.7540 H       1  UNL1        0.0294
     23 C          11.0450   20.8330   17.5600 C.ar    1  UNL1       -0.0580
     24 C          11.3150   26.2410   20.9550 C.ar    1  UNL1       -0.0536
     25 C          10.7640   23.9220   21.2810 C.ar    1  UNL1       -0.0536
     26 C          12.0860   21.2430   18.3960 C.ar    1  UNL1       -0.0199
     27 C          12.0370   23.4250   17.3670 C.ar    1  UNL1       -0.0167
     28 C          11.7130   24.9500   21.3210 C.ar    1  UNL1       -0.0127
     29 C          13.0810   24.7060   21.7520 C.ar    1  UNL1        0.0503
     30 C           9.0500   25.4670   20.5170 C.ar    1  UNL1       -0.0319
     31 C          11.0010   23.0220   16.5150 C.ar    1  UNL1       -0.0439
     32 C          12.5630   22.5500   18.3200 C.ar    1  UNL1        0.1214
     33 C          13.8880   23.6670   21.3260 C.ar    1  UNL1        0.1823
     34 C          13.9230   25.4410   22.6360 C.ar    1  UNL1        0.0886
     35 C          10.4260   23.9710   15.4950 C.3     1  UNL1       -0.0260
     36 C           9.1390   24.6490   15.9690 C.3     1  UNL1       -0.0281
     37 C           9.4050   25.8200   16.9080 C.3     1  UNL1        0.0820
     38 C          13.6240   26.6760   23.3990 C.3     1  UNL1       -0.0185
     39 N           7.3750   25.4510   18.6640 N.3     1  UNL1       -0.1902
     40 C          10.5000   21.7200   16.6320 C.ar    1  UNL1       -0.0583
     41 C           9.9950   26.4990   20.5700 C.ar    1  UNL1       -0.0567
     42 C           9.4520   24.1720   20.8640 C.ar    1  UNL1       -0.0567
     43 C           7.6340   25.7420   20.0810 C.3     1  UNL1        0.0421
     44 C          13.7300   22.5230   20.3960 C.3     1  UNL1        0.1502
     45 N          15.1310   24.8740   22.7470 N.ar    1  UNL1       -0.0826
     46 O           8.2000   27.8080   18.1790 O.2     1  UNL1       -0.1582
     47 O           6.8950   26.5110   16.4660 O.2     1  UNL1       -0.1582
     48 O          15.1050   23.7680   21.9250 O.2     1  UNL1       -0.3553
     49 O          13.5570   23.0770   19.0940 O.3     1  UNL1       -0.4842
     50 S           7.8900   26.5620   17.5160 S.O2    1  UNL1        0.0297
@<TRIPOS>BOND
     1     7    35    1
     2    18    36    1
     3    17    35    1
     4    35    36    1
     5    35    31    1
     6    36     8    1
     7    36    37    1
     8    12    40    1
     9     9    37    1
    10    47    50    2
    11    31    40   ar
    12    31    27   ar
    13    40    23   ar
    14    37    50    1
    15    37    19    1
    16     6    27    1
    17    27    32   ar
    18    50    46    2
    19    50    39    1
    20    23     2    1
    21    23    26   ar
    22    32    26   ar
    23    32    49    1
    24    26     5    1
    25    11    39    1
    26    39    43    1
    27    49    44    1
    28    43    15    1
    29    43    30    1
    30    43    21    1
    31    13    41    1
    32    16    44    1
    33    44     1    1
    34    44    33    1
    35    30    41   ar
    36    30    42   ar
    37    41    24   ar
    38    14    42    1
    39    42    25   ar
    40     3    24    1
    41    24    28   ar
    42    25    28   ar
    43    25     4    1
    44    28    29    1
    45    33    29   ar
    46    33    48   ar
    47    29    34   ar
    48    48    45   ar
    49    34    45   ar
    50    34    38    1
    51    22    38    1
    52    38    20    1
    53    38    10    1
