@<TRIPOS>MOLECULE
-27.48457
 50 53 0 0 0
SMALL
GASTEIGER

@<TRIPOS>ATOM
      1 H           7.7680   14.3840   14.2920 H       1  UNL1        0.0780
      2 H          11.5170   15.9440   16.3620 H       1  UNL1        0.0619
      3 H           8.4450   19.3020   15.5790 H       1  UNL1        0.0624
      4 H           4.5870   17.3730   15.5920 H       1  UNL1        0.0624
      5 H           9.5420   15.5650   14.9760 H       1  UNL1        0.0654
      6 H           7.0810   15.4400   18.5090 H       1  UNL1        0.0657
      7 H          10.0500   15.5860   20.7830 H       1  UNL1        0.0314
      8 H           9.0450   18.0390   20.1090 H       1  UNL1        0.0284
      9 H           6.9480   16.7560   21.9510 H       1  UNL1        0.0515
     10 H           6.9080   19.9670   11.4970 H       1  UNL1        0.0294
     11 H           7.4260   20.7800   20.2830 H       1  UNL1        0.1480
     12 H          11.3310   16.0920   18.8160 H       1  UNL1        0.0620
     13 H           7.9780   20.2640   17.7850 H       1  UNL1        0.0621
     14 H           4.1190   18.3220   17.8050 H       1  UNL1        0.0621
     15 H           4.8680   19.3890   19.7670 H       1  UNL1        0.0490
     16 H           6.0270   14.5720   14.3590 H       1  UNL1        0.0780
     17 H           8.3690   15.1220   20.7200 H       1  UNL1        0.0314
     18 H           9.2720   17.4720   21.7540 H       1  UNL1        0.0284
     19 H           6.6010   17.1710   20.2670 H       1  UNL1        0.0515
     20 H           7.9170   20.2890   12.9190 H       1  UNL1        0.0294
     21 H           5.3690   20.9750   19.2000 H       1  UNL1        0.0490
     22 H           6.1470   20.2650   13.0650 H       1  UNL1        0.0294
     23 C          10.5450   15.8290   16.8360 C.ar    1  UNL1       -0.0580
     24 C           7.4890   19.0940   16.0550 C.ar    1  UNL1       -0.0536
     25 C           5.3330   18.0070   16.0660 C.ar    1  UNL1       -0.0536
     26 C           9.4120   15.6050   16.0520 C.ar    1  UNL1       -0.0199
     27 C           8.0610   15.5460   18.0510 C.ar    1  UNL1       -0.0167
     28 C           6.5490   18.2690   15.4290 C.ar    1  UNL1       -0.0127
     29 C           6.8400   17.7000   14.1330 C.ar    1  UNL1        0.0503
     30 C           6.0190   19.3550   17.9740 C.ar    1  UNL1       -0.0319
     31 C           9.1910   15.7670   18.8470 C.ar    1  UNL1       -0.0439
     32 C           8.1640   15.4630   16.6570 C.ar    1  UNL1        0.1214
     33 C           7.0130   16.3580   13.8570 C.ar    1  UNL1        0.1823
     34 C           7.0570   18.3450   12.8860 C.ar    1  UNL1        0.0886
     35 C           9.0820   15.8680   20.3480 C.3     1  UNL1       -0.0260
     36 C           8.7190   17.2770   20.8260 C.3     1  UNL1       -0.0281
     37 C           7.2310   17.4200   21.1260 C.3     1  UNL1        0.0820
     38 C           7.0040   19.7920   12.5740 C.3     1  UNL1       -0.0185
     39 N           6.8600   19.9350   20.2310 N.3     1  UNL1       -0.1902
     40 C          10.4360   15.9130   18.2240 C.ar    1  UNL1       -0.0583
     41 C           7.2250   19.6350   17.3160 C.ar    1  UNL1       -0.0567
     42 C           5.0710   18.5470   17.3280 C.ar    1  UNL1       -0.0567
     43 C           5.7070   19.9410   19.3310 C.3     1  UNL1        0.0421
     44 C           6.9720   15.0720   14.6000 C.3     1  UNL1        0.1502
     45 N           7.3360   17.4600   11.9230 N.ar    1  UNL1       -0.0826
     46 O           5.4220   19.0750   22.1170 O.2     1  UNL1       -0.1582
     47 O           7.8560   19.6000   22.4840 O.2     1  UNL1       -0.1582
     48 O           7.3040   16.2220   12.5310 O.2     1  UNL1       -0.3553
     49 O           6.9710   15.2790   16.0130 O.3     1  UNL1       -0.4842
     50 S           6.7930   19.0750   21.6560 S.O2    1  UNL1        0.0297
@<TRIPOS>BOND
     1    10    38    1
     2    45    48   ar
     3    45    34   ar
     4    48    33   ar
     5    38    34    1
     6    38    20    1
     7    38    22    1
     8    34    29   ar
     9    33    29   ar
    10    33    44    1
    11    29    28    1
    12     1    44    1
    13    16    44    1
    14    44    49    1
    15     5    26    1
    16    28    24   ar
    17    28    25   ar
    18     3    24    1
    19     4    25    1
    20    49    32    1
    21    26    32   ar
    22    26    23   ar
    23    24    41   ar
    24    25    42   ar
    25     2    23    1
    26    32    27   ar
    27    23    40   ar
    28    41    13    1
    29    41    30   ar
    30    42    14    1
    31    42    30   ar
    32    30    43    1
    33    27     6    1
    34    27    31   ar
    35    40    12    1
    36    40    31   ar
    37    31    35    1
    38    21    43    1
    39    43    15    1
    40    43    39    1
    41     8    36    1
    42    39    11    1
    43    39    50    1
    44    19    37    1
    45    35    17    1
    46    35     7    1
    47    35    36    1
    48    36    37    1
    49    36    18    1
    50    37    50    1
    51    37     9    1
    52    50    46    2
    53    50    47    2
