@<TRIPOS>MOLECULE
-29.61338
 50 53 0 0 0
SMALL
GASTEIGER

@<TRIPOS>ATOM
      1 H          11.1910   15.9680   24.4770 H       1  UNL1        0.0780
      2 H           8.3780   20.5460   27.1450 H       1  UNL1        0.0619
      3 H           5.7680   17.3890   24.0940 H       1  UNL1        0.0624
      4 H           9.2280   16.2440   21.7910 H       1  UNL1        0.0624
      5 H           9.1050   18.3040   26.4870 H       1  UNL1        0.0654
      6 H          10.5320   19.8660   22.7420 H       1  UNL1        0.0657
      7 H          10.5480   22.2150   22.3640 H       1  UNL1        0.0314
      8 H           8.6930   23.5250   21.5780 H       1  UNL1        0.0284
      9 H           7.2650   21.0040   22.5250 H       1  UNL1        0.0515
     10 H           5.6910   13.2410   24.7730 H       1  UNL1        0.0294
     11 H           4.8320   20.5710   20.8460 H       1  UNL1        0.1480
     12 H           8.6740   22.4730   25.6270 H       1  UNL1        0.0620
     13 H           5.0370   18.8530   22.2870 H       1  UNL1        0.0621
     14 H           8.5290   17.7550   19.9900 H       1  UNL1        0.0621
     15 H           5.5930   18.8270   19.2540 H       1  UNL1        0.0490
     16 H          10.7160   16.8640   25.9040 H       1  UNL1        0.0780
     17 H          10.1230   23.3430   23.6300 H       1  UNL1        0.0314
     18 H           7.7620   23.2700   23.0440 H       1  UNL1        0.0284
     19 H           8.5250   20.9100   21.2520 H       1  UNL1        0.0515
     20 H           5.7090   14.2400   23.3160 H       1  UNL1        0.0294
     21 H           7.1750   19.5880   19.2250 H       1  UNL1        0.0490
     22 H           5.0850   14.9050   24.8400 H       1  UNL1        0.0294
     23 C           8.8570   20.4020   26.1790 C.ar    1  UNL1       -0.0580
     24 C           6.3780   17.4560   23.1960 C.ar    1  UNL1       -0.0536
     25 C           8.3150   16.8220   21.9120 C.ar    1  UNL1       -0.0536
     26 C           9.2840   19.1250   25.8010 C.ar    1  UNL1       -0.0199
     27 C          10.0680   20.0290   23.7130 C.ar    1  UNL1       -0.0167
     28 C           7.5570   16.7130   23.0820 C.ar    1  UNL1       -0.0127
     29 C           7.9450   15.8160   24.1530 C.ar    1  UNL1        0.0503
     30 C           6.7420   18.4500   21.0030 C.ar    1  UNL1       -0.0319
     31 C           9.6320   21.3120   24.0750 C.ar    1  UNL1       -0.0439
     32 C           9.8970   18.9360   24.5650 C.ar    1  UNL1        0.1214
     33 C           9.1310   15.8350   24.8640 C.ar    1  UNL1        0.1823
     34 C           7.2040   14.7550   24.7480 C.ar    1  UNL1        0.0886
     35 C           9.7660   22.4520   23.0970 C.3     1  UNL1       -0.0260
     36 C           8.4670   22.7860   22.3560 C.3     1  UNL1       -0.0281
     37 C           7.7950   21.5580   21.7460 C.3     1  UNL1        0.0820
     38 C           5.8510   14.2580   24.4010 C.3     1  UNL1       -0.0185
     39 N           5.7010   20.6080   20.3200 N.3     1  UNL1       -0.1902
     40 C           9.0270   21.4910   25.3210 C.ar    1  UNL1       -0.0583
     41 C           5.9670   18.3030   22.1620 C.ar    1  UNL1       -0.0567
     42 C           7.9130   17.6860   20.8850 C.ar    1  UNL1       -0.0567
     43 C           6.3200   19.3650   19.8740 C.3     1  UNL1        0.0421
     44 C          10.3990   16.6070   24.8860 C.3     1  UNL1        0.1502
     45 N           7.8880   14.1790   25.7420 N.ar    1  UNL1       -0.0826
     46 O           5.6700   22.9630   21.0770 O.2     1  UNL1       -0.1582
     47 O           7.2780   22.2590   19.2610 O.2     1  UNL1       -0.1582
     48 O           9.0880   14.8500   25.8080 O.2     1  UNL1       -0.3553
     49 O          10.3300   17.7510   24.0410 O.3     1  UNL1       -0.4842
     50 S           6.5880   22.0030   20.5050 S.O2    1  UNL1        0.0297
@<TRIPOS>BOND
     1    21    43    1
     2    15    43    1
     3    47    50    2
     4    43    39    1
     5    43    30    1
     6    14    42    1
     7    39    50    1
     8    39    11    1
     9    50    46    2
    10    50    37    1
    11    42    30   ar
    12    42    25   ar
    13    30    41   ar
    14    19    37    1
    15     8    36    1
    16    37    36    1
    17    37     9    1
    18     4    25    1
    19    25    28   ar
    20    41    13    1
    21    41    24   ar
    22    36    18    1
    23    36    35    1
    24     7    35    1
    25     6    27    1
    26    28    24   ar
    27    28    29    1
    28    35    17    1
    29    35    31    1
    30    24     3    1
    31    20    38    1
    32    27    31   ar
    33    27    32   ar
    34    49    32    1
    35    49    44    1
    36    31    40   ar
    37    29    34   ar
    38    29    33   ar
    39    38    34    1
    40    38    10    1
    41    38    22    1
    42     1    44    1
    43    32    26   ar
    44    34    45   ar
    45    33    44    1
    46    33    48   ar
    47    44    16    1
    48    40    12    1
    49    40    23   ar
    50    45    48   ar
    51    26    23   ar
    52    26     5    1
    53    23     2    1
