@<TRIPOS>MOLECULE
-27.82965
 50 53 0 0 0
SMALL
GASTEIGER

@<TRIPOS>ATOM
      1 H           7.1970   14.0880   12.9050 H       1  UNL1        0.0780
      2 H           8.4760   15.1240    8.6740 H       1  UNL1        0.0619
      3 H           8.6020   18.6370   11.4340 H       1  UNL1        0.0624
      4 H           9.8290   17.0750   15.2610 H       1  UNL1        0.0624
      5 H           7.5770   15.0710   10.9470 H       1  UNL1        0.0654
      6 H          11.5520   14.5170   12.5040 H       1  UNL1        0.0657
      7 H          13.0980   14.3460    9.0690 H       1  UNL1        0.0314
      8 H          14.7580   15.4700   10.6230 H       1  UNL1        0.0284
      9 H          12.5040   17.2850    9.5720 H       1  UNL1        0.0515
     10 H           5.4480   19.9920   14.2300 H       1  UNL1        0.0294
     11 H          13.3300   20.2160   10.8950 H       1  UNL1        0.1480
     12 H          10.8960   14.8920    8.2600 H       1  UNL1        0.0620
     13 H          10.9070   19.2720   10.9430 H       1  UNL1        0.0621
     14 H          12.1530   17.7020   14.7720 H       1  UNL1        0.0621
     15 H          13.7810   17.9970   12.8220 H       1  UNL1        0.0490
     16 H           7.7320   14.2550   14.5630 H       1  UNL1        0.0780
     17 H          13.2300   13.6560   10.6720 H       1  UNL1        0.0314
     18 H          13.4300   16.0240   11.6260 H       1  UNL1        0.0284
     19 H          13.9120   16.7110    8.6750 H       1  UNL1        0.0515
     20 H           6.4660   20.0550   12.7810 H       1  UNL1        0.0294
     21 H          13.4660   19.6970   13.1720 H       1  UNL1        0.0490
     22 H           7.2030   20.1210   14.3940 H       1  UNL1        0.0294
     23 C           9.1540   14.9870    9.5130 C.ar    1  UNL1       -0.0580
     24 C           9.3710   18.4430   12.1780 C.ar    1  UNL1       -0.0536
     25 C          10.0600   17.5640   14.3180 C.ar    1  UNL1       -0.0536
     26 C           8.6460   14.9460   10.8150 C.ar    1  UNL1       -0.0199
     27 C          10.8830   14.6460   11.6550 C.ar    1  UNL1       -0.0167
     28 C           9.0520   17.8070   13.3810 C.ar    1  UNL1       -0.0127
     29 C           7.6890   17.3990   13.6330 C.ar    1  UNL1        0.0503
     30 C          11.7200   18.5250   12.8130 C.ar    1  UNL1       -0.0319
     31 C          11.4060   14.6890   10.3540 C.ar    1  UNL1       -0.0439
     32 C           9.5110   14.7700   11.8930 C.ar    1  UNL1        0.1214
     33 C           7.2290   16.0970   13.6880 C.ar    1  UNL1        0.1823
     34 C           6.5220   18.1910   13.8000 C.ar    1  UNL1        0.0886
     35 C          12.8900   14.5470   10.1280 C.3     1  UNL1       -0.0260
     36 C          13.7000   15.7590   10.5990 C.3     1  UNL1       -0.0281
     37 C          13.5440   16.9610    9.6770 C.3     1  UNL1        0.0820
     38 C           6.4020   19.6680   13.8020 C.3     1  UNL1       -0.0185
     39 N          13.4200   19.2330   11.1460 N.3     1  UNL1       -0.1902
     40 C          10.5250   14.8590    9.2820 C.ar    1  UNL1       -0.0583
     41 C          10.6920   18.8000   11.8990 C.ar    1  UNL1       -0.0567
     42 C          11.3820   17.9200   14.0350 C.ar    1  UNL1       -0.0567
     43 C          13.1690   18.8580   12.5340 C.3     1  UNL1        0.0421
     44 C           7.7860   14.7250   13.5740 C.3     1  UNL1        0.1502
     45 N           5.4360   17.4280   13.9640 N.ar    1  UNL1       -0.0826
     46 O          15.6030   17.9720   11.0470 O.2     1  UNL1       -0.1582
     47 O          14.7180   19.2240    9.0500 O.2     1  UNL1       -0.1582
     48 O           5.8800   16.1250   13.8980 O.2     1  UNL1       -0.3553
     49 O           9.1670   14.7440   13.2160 O.3     1  UNL1       -0.4842
     50 S          14.5000   18.3860   10.2100 S.O2    1  UNL1        0.0297
@<TRIPOS>BOND
     1    12    40    1
     2     2    23    1
     3    19    37    1
     4    47    50    2
     5     7    35    1
     6    40    23   ar
     7    40    31   ar
     8    23    26   ar
     9     9    37    1
    10    37    50    1
    11    37    36    1
    12    35    31    1
    13    35    36    1
    14    35    17    1
    15    50    46    2
    16    50    39    1
    17    31    27   ar
    18    36     8    1
    19    36    18    1
    20    26     5    1
    21    26    32   ar
    22    11    39    1
    23    13    41    1
    24    39    43    1
    25     3    24    1
    26    27    32   ar
    27    27     6    1
    28    32    49    1
    29    41    24   ar
    30    41    30   ar
    31    24    28   ar
    32    43    30    1
    33    43    15    1
    34    43    21    1
    35    20    38    1
    36    30    42   ar
    37     1    44    1
    38    49    44    1
    39    28    29    1
    40    28    25   ar
    41    44    33    1
    42    44    16    1
    43    29    33   ar
    44    29    34   ar
    45    33    48   ar
    46    34    38    1
    47    34    45   ar
    48    38    10    1
    49    38    22    1
    50    48    45   ar
    51    42    25   ar
    52    42    14    1
    53    25     4    1
