@<TRIPOS>MOLECULE
-27.99247
 50 53 0 0 0
SMALL
GASTEIGER

@<TRIPOS>ATOM
      1 H          -3.5180   12.2650   16.7440 H       1  UNL1        0.0780
      2 H          -3.8500    9.0750   20.1420 H       1  UNL1        0.0619
      3 H          -2.8440   17.0150   17.7340 H       1  UNL1        0.0624
      4 H          -1.4440   13.4690   15.7120 H       1  UNL1        0.0624
      5 H          -5.1280   10.4800   18.5500 H       1  UNL1        0.0654
      6 H          -2.9830   13.9500   19.8620 H       1  UNL1        0.0657
      7 H          -0.6700   11.8940   22.0720 H       1  UNL1        0.0314
      8 H          -0.1360   13.3130   19.9910 H       1  UNL1        0.0284
      9 H           1.4700   13.2500   21.8610 H       1  UNL1        0.0515
     10 H          -4.3520   17.6180   13.7040 H       1  UNL1        0.0294
     11 H           2.9170   14.5300   19.3960 H       1  UNL1        0.1480
     12 H          -2.1100   10.0800   21.5720 H       1  UNL1        0.0620
     13 H          -0.6230   17.3200   18.7380 H       1  UNL1        0.0621
     14 H           0.7720   13.7650   16.7340 H       1  UNL1        0.0621
     15 H           1.7840   16.8460   18.6450 H       1  UNL1        0.0490
     16 H          -5.2750   12.1150   16.5080 H       1  UNL1        0.0780
     17 H          -1.7980   13.1590   22.5590 H       1  UNL1        0.0314
     18 H          -1.0330   14.6240   20.7500 H       1  UNL1        0.0284
     19 H           0.5100   14.4340   22.7730 H       1  UNL1        0.0515
     20 H          -2.7300   17.2660   14.3130 H       1  UNL1        0.0294
     21 H           2.3580   15.6310   17.5530 H       1  UNL1        0.0490
     22 H          -3.9140   18.0760   15.3590 H       1  UNL1        0.0294
     23 C          -3.6420   10.1400   20.0690 C.ar    1  UNL1       -0.0580
     24 C          -2.0580   16.2990   17.5030 C.ar    1  UNL1       -0.0536
     25 C          -1.2800   14.3080   16.3840 C.ar    1  UNL1       -0.0536
     26 C          -4.3580   10.9280   19.1700 C.ar    1  UNL1       -0.0199
     27 C          -3.1390   12.8760   19.9290 C.ar    1  UNL1       -0.0167
     28 C          -2.3060   15.2230   16.6430 C.ar    1  UNL1       -0.0127
     29 C          -3.5900   15.1040   15.9850 C.ar    1  UNL1        0.0503
     30 C           0.2490   15.5800   17.7890 C.ar    1  UNL1       -0.0319
     31 C          -2.3850   12.0890   20.8090 C.ar    1  UNL1       -0.0439
     32 C          -4.0860   12.2910   19.0930 C.ar    1  UNL1        0.1214
     33 C          -4.4680   14.0480   16.1110 C.ar    1  UNL1        0.1823
     34 C          -4.2510   15.9940   15.0960 C.ar    1  UNL1        0.0886
     35 C          -1.3160   12.6950   21.6900 C.3     1  UNL1       -0.0260
     36 C          -0.4470   13.7220   20.9600 C.3     1  UNL1       -0.0281
     37 C           0.7850   14.0990   21.7670 C.3     1  UNL1        0.0820
     38 C          -3.7880   17.3080   14.5900 C.3     1  UNL1       -0.0185
     39 N           1.9580   14.8780   19.4570 N.3     1  UNL1       -0.1902
     40 C          -2.6600   10.7150   20.8800 C.ar    1  UNL1       -0.0583
     41 C          -0.7930   16.4730   18.0730 C.ar    1  UNL1       -0.0567
     42 C          -0.0150   14.4820   16.9570 C.ar    1  UNL1       -0.0567
     43 C           1.6290   15.8000   18.3560 C.3     1  UNL1        0.0421
     44 C          -4.4810   12.7770   16.8690 C.3     1  UNL1        0.1502
     45 N          -5.4340   15.5050   14.7040 N.ar    1  UNL1       -0.0826
     46 O           0.8610   16.6200   20.9820 O.2     1  UNL1       -0.1582
     47 O           3.0160   15.4770   21.6260 O.2     1  UNL1       -0.1582
     48 O          -5.5670   14.2890   15.3440 O.2     1  UNL1       -0.3553
     49 O          -4.7510   13.1180   18.2320 O.3     1  UNL1       -0.4842
     50 S           1.7020   15.4450   21.0230 S.O2    1  UNL1        0.0297
@<TRIPOS>BOND
     1    10    38    1
     2    20    38    1
     3    38    34    1
     4    38    22    1
     5    45    34   ar
     6    45    48   ar
     7    34    29   ar
     8    48    33   ar
     9     4    25    1
    10    29    33   ar
    11    29    28    1
    12    33    44    1
    13    25    28   ar
    14    25    42   ar
    15    16    44    1
    16    28    24   ar
    17    14    42    1
    18     1    44    1
    19    44    49    1
    20    42    30   ar
    21    24     3    1
    22    24    41   ar
    23    21    43    1
    24    30    41   ar
    25    30    43    1
    26    41    13    1
    27    49    32    1
    28    43    15    1
    29    43    39    1
    30     5    26    1
    31    32    26   ar
    32    32    27   ar
    33    26    23   ar
    34    11    39    1
    35    39    50    1
    36     6    27    1
    37    27    31   ar
    38     8    36    1
    39    23     2    1
    40    23    40   ar
    41    18    36    1
    42    31    40   ar
    43    31    35    1
    44    40    12    1
    45    36    35    1
    46    36    37    1
    47    46    50    2
    48    50    47    2
    49    50    37    1
    50    35     7    1
    51    35    17    1
    52    37     9    1
    53    37    19    1
