@<TRIPOS>MOLECULE
-21.60737
 50 53 0 0 0
SMALL
GASTEIGER

@<TRIPOS>ATOM
      1 H           8.6000   14.3140   13.8390 H       1  UNL1        0.0780
      2 H          11.8110   12.8520   16.4340 H       1  UNL1        0.0619
      3 H           5.3400   16.6750   15.8460 H       1  UNL1        0.0624
      4 H           8.7150   19.2870   15.2220 H       1  UNL1        0.0624
      5 H           9.6230   12.9230   15.2940 H       1  UNL1        0.0654
      6 H           8.6430   16.5070   17.4100 H       1  UNL1        0.0657
      7 H          11.2650   17.6470   18.2210 H       1  UNL1        0.0314
      8 H           9.7280   16.4180   20.5790 H       1  UNL1        0.0284
      9 H          10.6610   19.2500   19.8320 H       1  UNL1        0.0515
     10 H           6.6660   19.7840   11.5340 H       1  UNL1        0.0294
     11 H           7.8700   20.9100   20.0330 H       1  UNL1        0.1480
     12 H          12.4410   14.5910   18.0650 H       1  UNL1        0.0620
     13 H           5.1800   17.4430   18.1710 H       1  UNL1        0.0621
     14 H           8.5440   20.0760   17.5300 H       1  UNL1        0.0621
     15 H           6.6580   18.2250   20.0730 H       1  UNL1        0.0490
     16 H           6.8580   14.1280   14.0520 H       1  UNL1        0.0780
     17 H          11.8630   16.4930   19.4080 H       1  UNL1        0.0314
     18 H           8.9220   17.3260   19.3300 H       1  UNL1        0.0284
     19 H          10.9830   18.3370   21.3130 H       1  UNL1        0.0515
     20 H           7.8850   20.1340   12.7720 H       1  UNL1        0.0294
     21 H           5.9070   19.7770   19.6880 H       1  UNL1        0.0490
     22 H           6.1770   19.9600   13.2240 H       1  UNL1        0.0294
     23 C          11.1170   13.6620   16.6490 C.ar    1  UNL1       -0.0580
     24 C           6.0410   17.4260   16.2040 C.ar    1  UNL1       -0.0536
     25 C           7.9240   18.8910   15.8550 C.ar    1  UNL1       -0.0536
     26 C           9.8850   13.7130   15.9910 C.ar    1  UNL1       -0.0199
     27 C           9.3530   15.7140   17.2150 C.ar    1  UNL1       -0.0167
     28 C           7.0520   17.9080   15.3690 C.ar    1  UNL1       -0.0127
     29 C           7.2060   17.4100   14.0180 C.ar    1  UNL1        0.0503
     30 C           6.8640   18.8040   18.0440 C.ar    1  UNL1       -0.0319
     31 C          10.5780   15.6790   17.8910 C.ar    1  UNL1       -0.0439
     32 C           9.0120   14.7610   16.2560 C.ar    1  UNL1        0.1214
     33 C           7.4810   16.1070   13.6410 C.ar    1  UNL1        0.1823
     34 C           7.1820   18.1290   12.7890 C.ar    1  UNL1        0.0886
     35 C          10.9720   16.7880   18.8400 C.3     1  UNL1       -0.0260
     36 C           9.8800   17.2090   19.8350 C.3     1  UNL1       -0.0281
     37 C          10.2410   18.5160   20.5280 C.3     1  UNL1        0.0820
     38 C           6.9640   19.5780   12.5670 C.3     1  UNL1       -0.0185
     39 N           7.9680   19.8940   20.0070 N.3     1  UNL1       -0.1902
     40 C          11.4670   14.6440   17.5830 C.ar    1  UNL1       -0.0583
     41 C           5.9500   17.8690   17.5290 C.ar    1  UNL1       -0.0567
     42 C           7.8270   19.3390   17.1770 C.ar    1  UNL1       -0.0567
     43 C           6.7950   19.1580   19.5160 C.3     1  UNL1        0.0421
     44 C           7.7100   14.7790   14.2770 C.3     1  UNL1        0.1502
     45 N           7.3950   17.3210   11.7460 N.ar    1  UNL1       -0.0826
     46 O           8.0520   18.3460   22.0310 O.2     1  UNL1       -0.1582
     47 O           9.3450   20.5070   21.9680 O.2     1  UNL1       -0.1582
     48 O           7.5760   16.0640   12.2780 O.2     1  UNL1       -0.3553
     49 O           7.7740   14.9080   15.6970 O.3     1  UNL1       -0.4842
     50 S           8.8420   19.3180   21.3140 S.O2    1  UNL1        0.0297
@<TRIPOS>BOND
     1    10    38    1
     2    45    48   ar
     3    45    34   ar
     4    48    33   ar
     5    38    20    1
     6    38    34    1
     7    38    22    1
     8    34    29   ar
     9    33    29   ar
    10    33    44    1
    11     1    44    1
    12    29    28    1
    13    16    44    1
    14    44    49    1
    15     4    25    1
    16     5    26    1
    17    28    25   ar
    18    28    24   ar
    19    49    32    1
    20     3    24    1
    21    25    42   ar
    22    26    32   ar
    23    26    23   ar
    24    24    41   ar
    25    32    27   ar
    26     2    23    1
    27    23    40   ar
    28    42    14    1
    29    42    30   ar
    30    27     6    1
    31    27    31   ar
    32    41    30   ar
    33    41    13    1
    34    40    31   ar
    35    40    12    1
    36    31    35    1
    37    30    43    1
    38     7    35    1
    39    35    17    1
    40    35    36    1
    41    18    36    1
    42    43    21    1
    43    43    39    1
    44    43    15    1
    45     9    37    1
    46    36    37    1
    47    36     8    1
    48    39    11    1
    49    39    50    1
    50    37    19    1
    51    37    50    1
    52    50    47    2
    53    50    46    2
