@<TRIPOS>MOLECULE
205.57342
 51 56 0 0 0
SMALL
GASTEIGER

@<TRIPOS>ATOM
      1 H          -5.2970    9.4220   14.4420 H       1  UNL1        0.0445
      2 H          -4.8750    7.7670   10.9940 H       1  UNL1        0.0245
      3 H          -8.9330    8.1040   14.3280 H       1  UNL1        0.0463
      4 H          -8.9870    5.8810   12.8350 H       1  UNL1        0.0746
      5 H          -6.8810    6.2760   11.1570 H       1  UNL1        0.0316
      6 H          -5.2290    7.0400   13.3480 H       1  UNL1        0.0461
      7 H         -14.0900    7.9550   10.9660 H       1  UNL1        0.0639
      8 H          -7.7810    9.3960   16.2220 H       1  UNL1        0.0522
      9 H         -10.5060    5.5980   11.1090 H       1  UNL1        0.0655
     10 H         -12.9500    5.7690   10.7710 H       1  UNL1        0.0619
     11 H         -10.8440   14.0010   11.6220 H       1  UNL1        0.0625
     12 H          -9.4080   15.7470   12.6120 H       1  UNL1        0.0618
     13 H          -7.6130   15.1440   14.2610 H       1  UNL1        0.0626
     14 H          -5.8060    8.0830   15.4670 H       1  UNL1        0.0445
     15 H          -6.2720    8.8510   11.0890 H       1  UNL1        0.0245
     16 H          -7.8390    6.7760   14.7930 H       1  UNL1        0.0463
     17 H          -6.6770    5.4420   12.7150 H       1  UNL1        0.0316
     18 H          -6.2770   10.2860   16.4750 H       1  UNL1        0.0522
     19 H          -4.8350    9.1640   12.0770 H       1  UNL1        0.0245
     20 H         -13.8980   10.3710   11.3860 H       1  UNL1        0.1690
     21 H          -8.5400   10.0370   13.4410 H       1  UNL1        0.1871
     22 C          -5.4800    8.3740   11.6770 C.3     1  UNL1       -0.0494
     23 N          -6.9070    8.3250   13.6770 N.3     1  UNL1       -0.2943
     24 C          -8.0800    7.5020   14.0060 C.3     1  UNL1        0.0363
     25 C          -8.3670    6.7710   12.6890 C.3     1  UNL1        0.1143
     26 C          -6.9590    6.3920   12.2440 C.3     1  UNL1        0.0009
     27 C          -6.0540    7.5080   12.7950 C.3     1  UNL1        0.0112
     28 C         -10.8910    8.9490   11.6580 C.ar    1  UNL1        0.1295
     29 C         -10.2620    7.6950   11.5730 C.ar    1  UNL1        0.1482
     30 C         -12.2740    9.0310   11.4460 C.ar    1  UNL1        0.0713
     31 N         -10.1360   10.0810   12.0040 N.ar    1  UNL1       -0.2360
     32 C         -10.9990    6.5570   11.2400 C.ar    1  UNL1       -0.0177
     33 O          -8.8970    7.6550   11.6880 O.3     1  UNL1       -0.4853
     34 C         -13.0190    7.8930   11.1350 C.ar    1  UNL1       -0.0360
     35 N         -12.9060   10.2750   11.5500 N.ar    1  UNL1       -0.3190
     36 C         -10.7230   11.2360   12.1580 C.ar    1  UNL1        0.1379
     37 C         -12.3770    6.6560   11.0310 C.ar    1  UNL1       -0.0562
     38 C         -12.2180   11.4190   11.8820 C.ar    1  UNL1        0.2754
     39 C          -9.9100   12.3620   12.6930 C.ar    1  UNL1        0.0311
     40 O         -12.7660   12.5080   11.9670 O.2     1  UNL1       -0.2656
     41 C          -8.9040   12.0560   13.6020 C.ar    1  UNL1        0.0770
     42 C         -10.0810   13.7060   12.3390 C.ar    1  UNL1       -0.0503
     43 C          -8.1080   13.0550   14.1530 C.ar    1  UNL1        0.0661
     44 N          -8.5890   10.7990   14.1320 N.ar    1  UNL1       -0.2934
     45 C          -9.2580   14.7080   12.9020 C.ar    1  UNL1       -0.0603
     46 C          -7.1690   12.3630   15.0510 C.ar    1  UNL1        0.2748
     47 C          -8.2530   14.3870   13.8230 C.ar    1  UNL1       -0.0473
     48 N          -7.4980   11.0210   14.9720 N.ar    1  UNL1       -0.2501
     49 C          -6.9530    9.8960   15.7060 C.3     1  UNL1        0.0559
     50 O          -6.3040   12.9080   15.7120 O.2     1  UNL1       -0.2656
     51 C          -6.1780    8.8910   14.8240 C.3     1  UNL1        0.0189
@<TRIPOS>BOND
     1    10    37    1
     2     7    34    1
     3     2    22    1
     4    37    34   ar
     5    37    32   ar
     6    15    22    1
     7     9    32    1
     8    34    30   ar
     9     5    26    1
    10    32    29   ar
    11    20    35    1
    12    30    35   ar
    13    30    28   ar
    14    35    38   ar
    15    29    28   ar
    16    29    33    1
    17    11    42    1
    18    28    31   ar
    19    22    19    1
    20    22    27    1
    21    33    25    1
    22    38    40    2
    23    38    36   ar
    24    31    36   ar
    25    36    39    1
    26    26    25    1
    27    26    17    1
    28    26    27    1
    29    42    39   ar
    30    42    45   ar
    31    12    45    1
    32    25     4    1
    33    25    24    1
    34    39    41   ar
    35    27     6    1
    36    27    23    1
    37    45    47   ar
    38    21    44    1
    39    41    44   ar
    40    41    43   ar
    41    23    24    1
    42    23    51    1
    43    47    43   ar
    44    47    13    1
    45    24     3    1
    46    24    16    1
    47    44    48   ar
    48    43    46   ar
    49     1    51    1
    50    51    14    1
    51    51    49    1
    52    48    46   ar
    53    48    49    1
    54    46    50    2
    55    49     8    1
    56    49    18    1
