@<TRIPOS>MOLECULE
208.04468
 51 56 0 0 0
SMALL
GASTEIGER

@<TRIPOS>ATOM
      1 H          -5.5040    9.9530   14.1450 H       1  UNL1        0.0445
      2 H          -6.2360    9.1060   10.5770 H       1  UNL1        0.0245
      3 H          -8.1440    7.4430   15.3230 H       1  UNL1        0.0463
      4 H          -8.5490    5.6700   13.3250 H       1  UNL1        0.0746
      5 H          -8.1970    7.5410   11.2030 H       1  UNL1        0.0316
      6 H          -5.5740    7.7520   12.5760 H       1  UNL1        0.0461
      7 H         -13.1650    7.6340    9.5120 H       1  UNL1        0.0639
      8 H          -7.5690    9.5370   16.3800 H       1  UNL1        0.0522
      9 H         -10.7070    5.2820   12.1380 H       1  UNL1        0.0655
     10 H         -12.3650    5.4300   10.2990 H       1  UNL1        0.0619
     11 H         -10.8360   13.7370   11.2760 H       1  UNL1        0.0625
     12 H          -9.4770   15.5700   12.1250 H       1  UNL1        0.0618
     13 H          -7.7660   15.1760   13.9180 H       1  UNL1        0.0626
     14 H          -5.4570    8.5870   15.2500 H       1  UNL1        0.0445
     15 H          -7.4860    9.9230   11.5240 H       1  UNL1        0.0245
     16 H          -6.7260    6.5930   14.6370 H       1  UNL1        0.0463
     17 H          -7.0280    6.2950   11.6550 H       1  UNL1        0.0316
     18 H          -6.1640   10.6130   16.4330 H       1  UNL1        0.0522
     19 H          -5.7770   10.1560   11.9200 H       1  UNL1        0.0245
     20 H         -13.1120   10.0910    9.7920 H       1  UNL1        0.1690
     21 H          -8.8500    9.9650   13.8850 H       1  UNL1        0.1871
     22 C          -6.5150    9.4190   11.5880 C.3     1  UNL1       -0.0494
     23 N          -7.0550    8.5460   13.8580 N.3     1  UNL1       -0.2943
     24 C          -7.5520    7.2810   14.4170 C.3     1  UNL1        0.0363
     25 C          -8.4060    6.7530   13.2580 C.3     1  UNL1        0.1143
     26 C          -7.5830    7.1660   12.0260 C.3     1  UNL1        0.0009
     27 C          -6.5690    8.2150   12.5220 C.3     1  UNL1        0.0112
     28 C         -10.9460    8.6820   11.8860 C.ar    1  UNL1        0.1295
     29 C         -10.5140    7.4230   12.3300 C.ar    1  UNL1        0.1482
     30 C         -11.9070    8.7500   10.8760 C.ar    1  UNL1        0.0713
     31 N         -10.3660    9.8380   12.4310 N.ar    1  UNL1       -0.2360
     32 C         -11.0180    6.2530   11.7660 C.ar    1  UNL1       -0.0177
     33 O          -9.6740    7.4070   13.4060 O.3     1  UNL1       -0.4853
     34 C         -12.4150    7.5860   10.2960 C.ar    1  UNL1       -0.0360
     35 N         -12.3770   10.0040   10.4790 N.ar    1  UNL1       -0.3190
     36 C         -10.7690   11.0230   12.0650 C.ar    1  UNL1        0.1379
     37 C         -11.9620    6.3390   10.7400 C.ar    1  UNL1       -0.0562
     38 C         -11.9260   11.1720   11.0560 C.ar    1  UNL1        0.2754
     39 C         -10.0340   12.2120   12.6170 C.ar    1  UNL1        0.0311
     40 O         -12.4270   12.2500   10.7760 O.2     1  UNL1       -0.2656
     41 C          -9.0920   12.0300   13.6310 C.ar    1  UNL1        0.0770
     42 C         -10.1510   13.5110   12.0880 C.ar    1  UNL1       -0.0503
     43 C          -8.3090   13.1010   14.0720 C.ar    1  UNL1        0.0661
     44 N          -8.7990   10.8720   14.3690 N.ar    1  UNL1       -0.2934
     45 C          -9.3590   14.5810   12.5650 C.ar    1  UNL1       -0.0603
     46 C          -7.3450   12.5370   15.0270 C.ar    1  UNL1        0.2748
     47 C          -8.4110   14.3790   13.5640 C.ar    1  UNL1       -0.0473
     48 N          -7.6750   11.2000   15.1420 N.ar    1  UNL1       -0.2501
     49 C          -6.8950   10.1440   15.7650 C.3     1  UNL1        0.0559
     50 O          -6.4220   13.1510   15.5290 O.2     1  UNL1       -0.2656
     51 C          -6.1350    9.2770   14.7330 C.3     1  UNL1        0.0189
@<TRIPOS>BOND
     1     7    34    1
     2    20    35    1
     3    34    37   ar
     4    34    30   ar
     5    10    37    1
     6    35    30   ar
     7    35    38   ar
     8     2    22    1
     9    37    32   ar
    10    40    38    2
    11    30    28   ar
    12    38    36   ar
    13     5    26    1
    14    11    42    1
    15    15    22    1
    16    22    19    1
    17    22    27    1
    18    17    26    1
    19    32     9    1
    20    32    29   ar
    21    28    29   ar
    22    28    31   ar
    23    26    27    1
    24    26    25    1
    25    36    31   ar
    26    36    39    1
    27    42    45   ar
    28    42    39   ar
    29    12    45    1
    30    29    33    1
    31    27     6    1
    32    27    23    1
    33    45    47   ar
    34    39    41   ar
    35    25     4    1
    36    25    33    1
    37    25    24    1
    38    47    13    1
    39    47    43   ar
    40    41    43   ar
    41    41    44   ar
    42    23    24    1
    43    23    51    1
    44    21    44    1
    45    43    46   ar
    46     1    51    1
    47    44    48   ar
    48    24    16    1
    49    24     3    1
    50    51    14    1
    51    51    49    1
    52    46    48   ar
    53    46    50    2
    54    48    49    1
    55    49     8    1
    56    49    18    1
