@<TRIPOS>MOLECULE
206.41640
 51 56 0 0 0
SMALL
GASTEIGER

@<TRIPOS>ATOM
      1 H          -5.0920    6.4920   14.4760 H       1  UNL1        0.0445
      2 H          -6.0330    5.1600   10.7360 H       1  UNL1        0.0245
      3 H          -8.3320    7.9430   14.7090 H       1  UNL1        0.0463
      4 H          -9.8450    5.8730   13.7140 H       1  UNL1        0.0746
      5 H          -8.4710    5.8660   11.2290 H       1  UNL1        0.0316
      6 H          -6.3970    5.0820   13.2320 H       1  UNL1        0.0461
      7 H         -13.5800   10.2070   14.7190 H       1  UNL1        0.0639
      8 H          -3.7400    8.4930   14.1880 H       1  UNL1        0.0522
      9 H         -12.0110    6.5400   13.1400 H       1  UNL1        0.0655
     10 H         -13.8520    7.8030   14.2080 H       1  UNL1        0.0619
     11 H          -8.5600   14.1070   12.4510 H       1  UNL1        0.0625
     12 H          -6.3460   15.0680   11.9740 H       1  UNL1        0.0618
     13 H          -4.2740   13.6680   12.2030 H       1  UNL1        0.0626
     14 H          -5.9190    7.8520   15.2090 H       1  UNL1        0.0445
     15 H          -6.1810    6.9240   10.7850 H       1  UNL1        0.0245
     16 H          -7.8860    6.2480   15.0330 H       1  UNL1        0.0463
     17 H          -8.4460    4.5700   12.4390 H       1  UNL1        0.0316
     18 H          -4.3270    8.0760   12.5940 H       1  UNL1        0.0522
     19 H          -4.8480    6.1120   11.6290 H       1  UNL1        0.0245
     20 H         -12.1490   12.1920   14.6540 H       1  UNL1        0.1690
     21 H          -7.2090    9.3660   13.1990 H       1  UNL1        0.1871
     22 C          -5.9090    6.0420   11.3750 C.3     1  UNL1       -0.0494
     23 N          -6.8250    7.1490   13.4300 N.3     1  UNL1       -0.2943
     24 C          -8.0400    6.9970   14.2460 C.3     1  UNL1        0.0363
     25 C          -9.0730    6.4870   13.2370 C.3     1  UNL1        0.1143
     26 C          -8.2380    5.6340   12.2750 C.3     1  UNL1        0.0009
     27 C          -6.7680    5.9200   12.6260 C.3     1  UNL1        0.0112
     28 C         -10.5000    9.6010   13.3490 C.ar    1  UNL1        0.1295
     29 C         -10.6620    8.2280   13.0990 C.ar    1  UNL1        0.1482
     30 C         -11.5600   10.3000   13.9430 C.ar    1  UNL1        0.0713
     31 N          -9.2850   10.2370   13.0290 N.ar    1  UNL1       -0.2360
     32 C         -11.8690    7.5880   13.3910 C.ar    1  UNL1       -0.0177
     33 O          -9.6510    7.5530   12.4630 O.3     1  UNL1       -0.4853
     34 C         -12.7600    9.6610   14.2620 C.ar    1  UNL1       -0.0360
     35 N         -11.4070   11.6600   14.2220 N.ar    1  UNL1       -0.3190
     36 C          -9.1260   11.5050   13.2960 C.ar    1  UNL1        0.1379
     37 C         -12.9130    8.3030   13.9800 C.ar    1  UNL1       -0.0562
     38 C         -10.2430   12.3350   13.9470 C.ar    1  UNL1        0.2754
     39 C          -7.8140   12.1380   12.9920 C.ar    1  UNL1        0.0311
     40 O         -10.1030   13.5180   14.2190 O.2     1  UNL1       -0.2656
     41 C          -6.6560   11.3780   13.0920 C.ar    1  UNL1        0.0770
     42 C          -7.6840   13.4740   12.5750 C.ar    1  UNL1       -0.0503
     43 C          -5.4140   11.9540   12.8250 C.ar    1  UNL1        0.0661
     44 N          -6.5180   10.0550   13.5210 N.ar    1  UNL1       -0.2934
     45 C          -6.4170   14.0300   12.2950 C.ar    1  UNL1       -0.0603
     46 C          -4.4270   10.8820   13.0090 C.ar    1  UNL1        0.2748
     47 C          -5.2570   13.2640   12.4200 C.ar    1  UNL1       -0.0473
     48 N          -5.1520    9.7730   13.4160 N.ar    1  UNL1       -0.2501
     49 C          -4.6500    8.4210   13.5800 C.3     1  UNL1        0.0559
     50 O          -3.2330   10.9880   12.8030 O.2     1  UNL1       -0.2656
     51 C          -5.6240    7.4210   14.2420 C.3     1  UNL1        0.0189
@<TRIPOS>BOND
     1     2    22    1
     2    15    22    1
     3     5    26    1
     4    22    19    1
     5    22    27    1
     6    12    45    1
     7    13    47    1
     8    26    17    1
     9    26    27    1
    10    26    25    1
    11    45    47   ar
    12    45    42   ar
    13    47    43   ar
    14    11    42    1
    15    33    29    1
    16    33    25    1
    17    42    39   ar
    18    18    49    1
    19    27     6    1
    20    27    23    1
    21    50    46    2
    22    43    46   ar
    23    43    41   ar
    24    39    41   ar
    25    39    36    1
    26    46    48   ar
    27    31    36   ar
    28    31    28   ar
    29    41    44   ar
    30    29    28   ar
    31    29    32   ar
    32     9    32    1
    33    21    44    1
    34    25     4    1
    35    25    24    1
    36    36    38   ar
    37    28    30   ar
    38    32    37   ar
    39    48    44   ar
    40    48    49    1
    41    23    51    1
    42    23    24    1
    43    49     8    1
    44    49    51    1
    45    30    35   ar
    46    30    34   ar
    47    38    40    2
    48    38    35   ar
    49    37    10    1
    50    37    34   ar
    51    35    20    1
    52    51     1    1
    53    51    14    1
    54    24     3    1
    55    24    16    1
    56    34     7    1
