@<TRIPOS>MOLECULE
127.09615
 81 83 0 0 0
SMALL
GASTEIGER

@<TRIPOS>ATOM
      1  H01       18.3140   25.3810  114.6570 H     1567  S1A1567     0.2099
      2  H02       13.0010   27.6830  113.6350 H     1567  S1A1567     0.0465
      3  H03       16.2700   28.0640  114.1150 H     1567  S1A1567     0.0676
      4  H04       17.5520   26.2890  112.7790 H     1567  S1A1567     0.0624
      5  H05       17.0010   23.9220  113.3960 H     1567  S1A1567     0.0349
      6  H06       15.5950   24.3600  115.3470 H     1567  S1A1567     0.0606
      7  H07       13.7610   23.0690  113.2740 H     1567  S1A1567     0.0365
      8  H10       11.5720   22.5910  117.2760 H     1567  S1A1567     0.0666
      9  H11       12.2310   21.9510  119.5780 H     1567  S1A1567     0.0625
     10  H12       14.4100   23.7180  118.3110 H     1567  S1A1567     0.0291
     11  H13       11.6810   24.4490  119.5110 H     1567  S1A1567     0.0266
     12  H14       13.9500   26.2530  118.5110 H     1567  S1A1567     0.0267
     13  H15       12.6000   28.0740  119.4730 H     1567  S1A1567     0.0304
     14  H16       10.9280   26.4700  117.4690 H     1567  S1A1567     0.0785
     15  H17       14.3590   29.2660  115.8790 H     1567  S1A1567     0.0239
     16  H18       16.1800   29.3480  112.2010 H     1567  S1A1567     0.0524
     17  H19       15.4470   23.5430  111.5810 H     1567  S1A1567     0.0234
     18  H20       15.9200   21.8950  113.1350 H     1567  S1A1567     0.0236
     19  H21       10.4210   19.3520  116.5290 H     1567  S1A1567     0.0524
     20  H22       15.0140   20.0650  120.4960 H     1567  S1A1567     0.0524
     21  H23       11.9590   30.0830  118.0870 H     1567  S1A1567     0.0621
     22  H24       10.3270   31.9360  118.1480 H     1567  S1A1567     0.0618
     23  H25        7.9040   31.4740  117.8820 H     1567  S1A1567     0.0618
     24  H26        7.1160   29.1460  117.5490 H     1567  S1A1567     0.0618
     25  H27        8.7300   27.2830  117.4840 H     1567  S1A1567     0.0621
     26  H28       16.1140   26.4680  115.9580 H     1567  S1A1567     0.2129
     27  H08       12.5630   23.5940  115.3190 H     1567  S1A1567     0.0573
     28  H09       14.1890   21.2040  116.3740 H     1567  S1A1567     0.0595
     29  H29       14.2910   21.5720  121.0940 H     1567  S1A1567     0.0524
     30  H32       14.0350   23.6250  120.0080 H     1567  S1A1567     0.0291
     31  H33       12.1660   24.6620  117.8250 H     1567  S1A1567     0.0266
     32  H34       13.5470   25.9980  120.2020 H     1567  S1A1567     0.0267
     33  H35       11.2980   26.9620  119.8860 H     1567  S1A1567     0.0304
     34  H36       12.9000   29.7780  115.0230 H     1567  S1A1567     0.0239
     35  H37       17.0090   27.9620  111.4220 H     1567  S1A1567     0.0524
     36  H38       16.4070   24.9480  111.1380 H     1567  S1A1567     0.0234
     37  H39       14.7820   20.8880  114.0090 H     1567  S1A1567     0.0236
     38  H40       10.0120   21.0780  116.5360 H     1567  S1A1567     0.0524
     39  H41       13.2510   20.1780  120.6550 H     1567  S1A1567     0.0524
     40  H42       14.4180   29.5980  114.1420 H     1567  S1A1567     0.0239
     41  H43       15.5260   28.6290  110.7160 H     1567  S1A1567     0.0524
     42  H44       14.7440   25.1490  111.7190 H     1567  S1A1567     0.0234
     43  H45       16.0300   21.7900  114.8950 H     1567  S1A1567     0.0236
     44  H46       11.2750   20.4480  115.4280 H     1567  S1A1567     0.0524
     45  C1        12.3430   27.2250  115.5610 C.2   1567  S1A1567     0.3158
     46  C2        13.4500   27.7060  114.6380 C.3   1567  S1A1567     0.1098
     47  C3        14.6530   26.7350  114.6850 C.3   1567  S1A1567     0.2096
     48  C4        15.7790   27.1780  113.6880 C.3   1567  S1A1567     0.1386
     49  C5        16.8270   26.0510  113.5650 C.3   1567  S1A1567     0.0913
     50  C6        16.2040   24.6690  113.2890 C.3   1567  S1A1567     0.0117
     51  C7        15.1230   24.3800  114.3550 C.3   1567  S1A1567     0.0730
     52  C8        14.3690   23.0250  114.1870 C.3   1567  S1A1567     0.0011
     53  C9        13.3710   22.8600  115.3270 C.2   1567  S1A1567    -0.0802
     54  C10       13.3980   21.9470  116.3150 C.2   1567  S1A1567    -0.0568
     55  C11       12.3830   21.8700  117.4290 C.3   1567  S1A1567     0.1025
     56  C12       13.0170   22.1290  118.8300 C.3   1567  S1A1567     0.0879
     57  C13       13.5820   23.5510  119.0110 C.3   1567  S1A1567    -0.0239
     58  C14       12.5350   24.6550  118.8550 C.3   1567  S1A1567    -0.0505
     59  C15       13.1210   26.0280  119.1910 C.3   1567  S1A1567    -0.0493
     60  C16       12.0860   27.1600  119.1470 C.3   1567  S1A1567    -0.0114
     61  C17       11.4540   27.3860  117.7620 C.3   1567  S1A1567     0.1280
     62  C19       13.8060   29.1660  114.9390 C.3   1567  S1A1567    -0.0472
     63  C20       16.0400   28.4100  111.6560 C.3   1567  S1A1567     0.0371
     64  C21       15.6670   24.5790  111.8550 C.3   1567  S1A1567    -0.0576
     65  C22       15.3300   21.8360  114.0540 C.3   1567  S1A1567    -0.0566
     66  C23       10.8300   20.3610  116.4240 C.3   1567  S1A1567     0.0373
     67  C24       14.1570   20.7370  120.4010 C.3   1567  S1A1567     0.0369
     68  C25       10.4670   28.5410  117.7950 C.ar  1567  S1A1567    -0.0073
     69  C26       10.8990   29.8650  117.9760 C.ar  1567  S1A1567    -0.0551
     70  C27        9.9800   30.9150  118.0090 C.ar  1567  S1A1567    -0.0614
     71  C28        8.6190   30.6570  117.8590 C.ar  1567  S1A1567    -0.0617
     72  C29        8.1770   29.3490  117.6740 C.ar  1567  S1A1567    -0.0614
     73  C30        9.0940   28.2970  117.6410 C.ar  1567  S1A1567    -0.0551
     74  O1        11.4100   26.5190  115.1940 O.2   1567  S1A1567    -0.2503
     75  O3        15.1700   26.7180  116.0200 O.3   1567  S1A1567    -0.3619
     76  O4        15.2290   27.5150  112.4050 O.3   1567  S1A1567    -0.3718
     77  O5        17.5660   25.9920  114.7990 O.3   1567  S1A1567    -0.3887
     78  O7        14.1530   25.4380  114.3330 O.3   1567  S1A1567    -0.3415
     79  O11       11.8050   20.5500  117.4410 O.3   1567  S1A1567    -0.3732
     80  O12       14.0940   21.1930  119.0580 O.3   1567  S1A1567    -0.3769
     81  O18       12.4990   27.7000  116.8270 O.3   1567  S1A1567    -0.4563
@<TRIPOS>BOND
     1     1    77    1
     2     2    46    1
     3     3    48    1
     4     4    49    1
     5     5    50    1
     6     6    51    1
     7     7    52    1
     8     8    55    1
     9     9    56    1
    10    10    57    1
    11    11    58    1
    12    12    59    1
    13    13    60    1
    14    14    61    1
    15    15    62    1
    16    16    63    1
    17    17    64    1
    18    18    65    1
    19    19    66    1
    20    20    67    1
    21    21    69    1
    22    22    70    1
    23    23    71    1
    24    24    72    1
    25    25    73    1
    26    26    75    1
    27    27    53    1
    28    28    54    1
    29    29    67    1
    30    30    57    1
    31    31    58    1
    32    32    59    1
    33    33    60    1
    34    34    62    1
    35    35    63    1
    36    36    64    1
    37    37    65    1
    38    38    66    1
    39    39    67    1
    40    40    62    1
    41    41    63    1
    42    42    64    1
    43    43    65    1
    44    44    66    1
    45    45    46    1
    46    45    74    2
    47    45    81    1
    48    46    47    1
    49    46    62    1
    50    47    48    1
    51    47    75    1
    52    47    78    1
    53    48    49    1
    54    48    76    1
    55    49    50    1
    56    49    77    1
    57    50    51    1
    58    50    64    1
    59    51    52    1
    60    51    78    1
    61    52    53    1
    62    52    65    1
    63    53    54    2
    64    54    55    1
    65    55    56    1
    66    55    79    1
    67    56    57    1
    68    56    80    1
    69    57    58    1
    70    58    59    1
    71    59    60    1
    72    60    61    1
    73    61    68    1
    74    61    81    1
    75    63    76    1
    76    66    79    1
    77    67    80    1
    78    68    69   ar
    79    68    73   ar
    80    69    70   ar
    81    70    71   ar
    82    71    72   ar
    83    72    73   ar
