@<TRIPOS>MOLECULE
9.82092
 54 55 0 0 0
SMALL
GASTEIGER

@<TRIPOS>ATOM
      1 H         -18.4130    1.6520   -8.9540 H       1  UNL1        0.0569
      2 H         -19.5350    2.8720  -11.5400 H       1  UNL1        0.0569
      3 H         -17.0650   -0.8990  -14.6180 H       1  UNL1        0.2922
      4 H         -13.7180   -0.8280  -15.6190 H       1  UNL1        0.0691
      5 H         -16.2240   -0.5300  -10.6050 H       1  UNL1        0.1490
      6 H         -18.0960   -1.0420   -9.4850 H       1  UNL1        0.0465
      7 H         -20.2360    0.0400   -9.8900 H       1  UNL1        0.0322
      8 H         -17.9980    4.0520   -9.1180 H       1  UNL1        0.0307
      9 H         -18.2720    5.7750  -11.4670 H       1  UNL1        0.0268
     10 H         -16.5510    6.0740   -9.7150 H       1  UNL1        0.0274
     11 H         -15.7900    3.7060   -9.4090 H       1  UNL1        0.0427
     12 H         -14.3410    1.7110  -10.2930 H       1  UNL1        0.0391
     13 H         -13.4880    5.4030  -10.5240 H       1  UNL1        0.0914
     14 H         -12.3000    4.0970   -9.3090 H       1  UNL1        0.2125
     15 H         -12.8740    7.2110   -9.1850 H       1  UNL1        0.0558
     16 H         -12.7370    8.1970   -6.8950 H       1  UNL1        0.0252
     17 H         -11.2320    1.0690  -14.0020 H       1  UNL1        0.2922
     18 H         -13.8730    6.9620   -6.3000 H       1  UNL1        0.0252
     19 H         -18.7320   -1.6140  -11.0350 H       1  UNL1        0.0465
     20 H         -19.7740    0.5270  -11.5110 H       1  UNL1        0.0322
     21 H         -19.4210    4.7930   -9.8240 H       1  UNL1        0.0307
     22 H         -17.5270    4.2860  -11.9980 H       1  UNL1        0.0268
     23 H         -15.9120    6.0750  -11.3510 H       1  UNL1        0.0274
     24 H         -16.0290    1.7110  -10.7450 H       1  UNL1        0.0391
     25 H         -12.3160    5.9990   -7.9990 H       1  UNL1        0.0558
     26 H         -14.4220    8.1580   -7.4680 H       1  UNL1        0.0252
     27 C         -15.2630   -0.3920  -14.1850 C.ar    1  UNL1        0.1328
     28 C         -13.9750   -0.3140  -14.6980 C.ar    1  UNL1        0.0235
     29 C         -13.0230    0.4270  -14.0160 C.ar    1  UNL1        0.1389
     30 C         -13.3530    1.1170  -12.8390 C.ar    1  UNL1        0.0868
     31 C         -14.6640    1.0700  -12.3100 C.ar    1  UNL1       -0.0028
     32 C         -15.6090    0.2530  -12.9790 C.ar    1  UNL1        0.0832
     33 C         -16.9770   -0.0230  -12.4640 C.2     1  UNL1        0.2479
     34 O         -17.9200   -0.0330  -13.2490 O.2     1  UNL1       -0.2701
     35 N         -17.0710   -0.3850  -11.1390 N.am    1  UNL1       -0.3109
     36 C         -18.3320   -0.7380  -10.5120 C.3     1  UNL1        0.0153
     37 C         -19.3870    0.3780  -10.4960 C.3     1  UNL1       -0.0191
     38 C         -18.8910    1.6840   -9.9300 C.2     1  UNL1       -0.0865
     39 C         -19.0310    2.8550  -10.5730 C.2     1  UNL1       -0.0879
     40 C         -18.5430    4.1790  -10.0590 C.3     1  UNL1       -0.0347
     41 C         -17.6980    4.9100  -11.1120 C.3     1  UNL1       -0.0488
     42 C         -16.3550    5.4310  -10.5810 C.3     1  UNL1       -0.0385
     43 C         -15.3520    4.3250  -10.2000 C.3     1  UNL1        0.0685
     44 C         -15.0390    3.4300  -11.3920 C.2     1  UNL1        0.1455
     45 C         -15.0300    1.9310  -11.1150 C.3     1  UNL1        0.0338
     46 O         -14.8040    3.9070  -12.5040 O.2     1  UNL1       -0.2966
     47 C         -14.0170    4.8970   -9.7060 C.3     1  UNL1        0.1656
     48 O         -13.2270    3.8180   -9.2230 O.3     1  UNL1       -0.3663
     49 O         -14.2780    5.7950   -8.6340 O.3     1  UNL1       -0.3511
     50 C         -13.1630    6.6180   -8.3110 C.3     1  UNL1        0.0478
     51 C         -13.5650    7.5410   -7.1770 C.3     1  UNL1       -0.0415
     52 CL        -12.0830    2.0000  -12.0460 Cl      1  UNL1       -0.0794
     53 O         -11.7620    0.4600  -14.5490 O.3     1  UNL1       -0.5052
     54 O         -16.1570   -1.1330  -14.9160 O.3     1  UNL1       -0.5059
@<TRIPOS>BOND
     1     4    28    1
     2    54     3    1
     3    54    27    1
     4    28    27   ar
     5    28    29   ar
     6    53    29    1
     7    53    17    1
     8    27    32   ar
     9    29    30   ar
    10    34    33    2
    11    32    33    1
    12    32    31   ar
    13    30    31   ar
    14    30    52    1
    15    46    44    2
    16    33    35   am
    17    31    45    1
    18    22    41    1
    19     2    39    1
    20    20    37    1
    21     9    41    1
    22    44    45    1
    23    44    43    1
    24    23    42    1
    25    35     5    1
    26    35    36    1
    27    45    24    1
    28    45    12    1
    29    41    42    1
    30    41    40    1
    31    19    36    1
    32    42    43    1
    33    42    10    1
    34    39    40    1
    35    39    38    2
    36    13    47    1
    37    36    37    1
    38    36     6    1
    39    37    38    1
    40    37     7    1
    41    43    47    1
    42    43    11    1
    43    40    21    1
    44    40     8    1
    45    38     1    1
    46    47    48    1
    47    47    49    1
    48    14    48    1
    49    15    50    1
    50    49    50    1
    51    50    25    1
    52    50    51    1
    53    26    51    1
    54    51    16    1
    55    51    18    1
