@<TRIPOS>MOLECULE
11.14268
 54 55 0 0 0
SMALL
GASTEIGER

@<TRIPOS>ATOM
      1 H         -21.0760    0.2670   -8.9380 H       1  UNL1        0.0569
      2 H         -18.3350    1.4240   -9.7030 H       1  UNL1        0.0569
      3 H         -18.1550   -0.5580   -3.2040 H       1  UNL1        0.2922
      4 H         -16.2910   -3.4300   -2.6020 H       1  UNL1        0.0691
      5 H         -17.3470   -0.4610   -6.9660 H       1  UNL1        0.1490
      6 H         -17.7860    1.7130   -7.4510 H       1  UNL1        0.0465
      7 H         -20.2250    2.4800   -7.4970 H       1  UNL1        0.0322
      8 H         -19.5670    0.9680  -11.8970 H       1  UNL1        0.0307
      9 H         -17.3590   -0.1820  -11.5000 H       1  UNL1        0.0268
     10 H         -17.5110   -2.7160  -11.3200 H       1  UNL1        0.0274
     11 H         -18.2910   -1.1830   -8.8140 H       1  UNL1        0.0427
     12 H         -19.6410   -2.2490   -7.3760 H       1  UNL1        0.0391
     13 H         -15.7390   -2.7800   -9.3710 H       1  UNL1        0.0914
     14 H         -15.1530   -1.9430   -7.4920 H       1  UNL1        0.2125
     15 H         -14.0600   -1.6500  -10.5070 H       1  UNL1        0.0558
     16 H         -12.8780    0.5160  -10.8910 H       1  UNL1        0.0252
     17 H         -16.4930   -6.3130   -4.6100 H       1  UNL1        0.2922
     18 H         -14.2680    1.3910  -10.2050 H       1  UNL1        0.0252
     19 H         -18.5410    1.8530   -5.8620 H       1  UNL1        0.0465
     20 H         -20.6900    0.9580   -6.7610 H       1  UNL1        0.0322
     21 H         -20.4040   -0.3840  -11.1480 H       1  UNL1        0.0307
     22 H         -18.4510   -0.9830  -12.6000 H       1  UNL1        0.0268
     23 H         -19.1870   -2.5580  -10.8470 H       1  UNL1        0.0274
     24 H         -19.7680   -3.9640   -7.3140 H       1  UNL1        0.0391
     25 H         -13.8650   -0.7480   -8.9780 H       1  UNL1        0.0558
     26 H         -14.4580    0.5020  -11.7110 H       1  UNL1        0.0252
     27 C         -17.4520   -2.1920   -3.9250 C.ar    1  UNL1        0.1328
     28 C         -16.8180   -3.3660   -3.5490 C.ar    1  UNL1        0.0235
     29 C         -16.9110   -4.4700   -4.3810 C.ar    1  UNL1        0.1389
     30 C         -17.6250   -4.4130   -5.5910 C.ar    1  UNL1        0.0868
     31 C         -18.2270   -3.2120   -6.0280 C.ar    1  UNL1       -0.0028
     32 C         -18.1180   -2.0940   -5.1630 C.ar    1  UNL1        0.0832
     33 C         -18.7210   -0.7760   -5.4550 C.2     1  UNL1        0.2479
     34 O         -19.5660   -0.3330   -4.6870 O.2     1  UNL1       -0.2701
     35 N         -18.1700   -0.0780   -6.4990 N.am    1  UNL1       -0.3109
     36 C         -18.5590    1.2900   -6.8020 C.3     1  UNL1        0.0153
     37 C         -19.9550    1.4190   -7.4320 C.3     1  UNL1       -0.0191
     38 C         -20.1410    0.8060   -8.7980 C.2     1  UNL1       -0.0865
     39 C         -19.2640    0.8690   -9.8130 C.2     1  UNL1       -0.0879
     40 C         -19.4670    0.1850  -11.1350 C.3     1  UNL1       -0.0347
     41 C         -18.3040   -0.7320  -11.5410 C.3     1  UNL1       -0.0488
     42 C         -18.2090   -2.0640  -10.7770 C.3     1  UNL1       -0.0385
     43 C         -17.7710   -2.0010   -9.3000 C.3     1  UNL1        0.0685
     44 C         -18.2140   -3.2760   -8.6020 C.2     1  UNL1        0.1455
     45 C         -19.0280   -3.1540   -7.3160 C.3     1  UNL1        0.0338
     46 O         -17.9080   -4.3730   -9.0760 O.2     1  UNL1       -0.2966
     47 C         -16.2620   -1.8620   -9.0750 C.3     1  UNL1        0.1656
     48 O         -16.0510   -1.6210   -7.6850 O.3     1  UNL1       -0.3663
     49 O         -15.7730   -0.7380   -9.7890 O.3     1  UNL1       -0.3511
     50 C         -14.3590   -0.7520   -9.9550 C.3     1  UNL1        0.0478
     51 C         -13.9600    0.4850  -10.7360 C.3     1  UNL1       -0.0415
     52 CL        -17.7900   -5.9040   -6.4620 Cl      1  UNL1       -0.0794
     53 O         -16.3020   -5.6200   -3.9510 O.3     1  UNL1       -0.5052
     54 O         -17.4030   -1.1610   -3.0230 O.3     1  UNL1       -0.5059
@<TRIPOS>BOND
     1    22    41    1
     2     8    40    1
     3    26    51    1
     4    41     9    1
     5    41    40    1
     6    41    42    1
     7    10    42    1
     8    21    40    1
     9    40    39    1
    10    16    51    1
    11    23    42    1
    12    42    43    1
    13    51    18    1
    14    51    50    1
    15    15    50    1
    16    50    49    1
    17    50    25    1
    18    39     2    1
    19    39    38    2
    20    49    47    1
    21    13    47    1
    22    43    47    1
    23    43    11    1
    24    43    44    1
    25    46    44    2
    26    47    48    1
    27     1    38    1
    28    38    37    1
    29    44    45    1
    30    48    14    1
    31     7    37    1
    32     6    36    1
    33    37    36    1
    34    37    20    1
    35    12    45    1
    36    45    24    1
    37    45    31    1
    38     5    35    1
    39    36    35    1
    40    36    19    1
    41    35    33   am
    42    52    30    1
    43    31    30   ar
    44    31    32   ar
    45    30    29   ar
    46    33    32    1
    47    33    34    2
    48    32    27   ar
    49    17    53    1
    50    29    53    1
    51    29    28   ar
    52    27    28   ar
    53    27    54    1
    54    28     4    1
    55     3    54    1
