@<TRIPOS>MOLECULE
11.79634
 54 55 0 0 0
SMALL
GASTEIGER

@<TRIPOS>ATOM
      1 H         -12.8580    6.7060   -2.4250 H       1  UNL1        0.0569
      2 H         -14.0460    4.5390   -0.6050 H       1  UNL1        0.0569
      3 H         -19.4930    7.1720   -3.1580 H       1  UNL1        0.2922
      4 H         -21.3820    4.8330   -4.9200 H       1  UNL1        0.0691
      5 H         -16.6740    4.5630   -1.7480 H       1  UNL1        0.1490
      6 H         -15.8260    5.8090   -0.0260 H       1  UNL1        0.0465
      7 H         -14.4580    7.8670   -0.7230 H       1  UNL1        0.0322
      8 H         -11.5140    4.1230   -0.7320 H       1  UNL1        0.0307
      9 H         -13.1460    2.3290   -1.3390 H       1  UNL1        0.0268
     10 H         -12.4220    2.3410   -4.1860 H       1  UNL1        0.0274
     11 H         -14.4450    1.2260   -2.6500 H       1  UNL1        0.0427
     12 H         -15.5070    4.7710   -4.1570 H       1  UNL1        0.0391
     13 H         -14.6880    1.6490   -5.6600 H       1  UNL1        0.0914
     14 H         -16.0620   -0.0020   -5.4810 H       1  UNL1        0.2125
     15 H         -13.3630    0.1920   -6.9200 H       1  UNL1        0.0558
     16 H         -11.9660   -1.8780   -7.0040 H       1  UNL1        0.0252
     17 H         -20.0010    2.0710   -6.6070 H       1  UNL1        0.2922
     18 H         -12.0470   -2.0000   -5.2300 H       1  UNL1        0.0252
     19 H         -16.7630    7.1890   -0.5950 H       1  UNL1        0.0465
     20 H         -15.0430    7.6560   -2.3660 H       1  UNL1        0.0322
     21 H         -11.5170    4.6990   -2.3980 H       1  UNL1        0.0307
     22 H         -11.5920    2.1880   -2.1340 H       1  UNL1        0.0268
     23 H         -13.3540    3.7730   -3.8570 H       1  UNL1        0.0274
     24 H         -15.6530    3.5360   -5.3510 H       1  UNL1        0.0391
     25 H         -14.2130   -1.1880   -6.1710 H       1  UNL1        0.0558
     26 H         -11.2060   -0.6440   -5.9710 H       1  UNL1        0.0252
     27 C         -19.5380    5.4440   -3.9960 C.ar    1  UNL1        0.1328
     28 C         -20.3240    4.6250   -4.7920 C.ar    1  UNL1        0.0235
     29 C         -19.7320    3.5560   -5.4420 C.ar    1  UNL1        0.1389
     30 C         -18.3570    3.3000   -5.3100 C.ar    1  UNL1        0.0868
     31 C         -17.5380    4.1040   -4.4850 C.ar    1  UNL1       -0.0028
     32 C         -18.1660    5.1760   -3.8000 C.ar    1  UNL1        0.0832
     33 C         -17.4510    6.1130   -2.9010 C.2     1  UNL1        0.2479
     34 O         -17.6460    7.3180   -3.0440 O.2     1  UNL1       -0.2701
     35 N         -16.6970    5.5750   -1.8890 N.am    1  UNL1       -0.3109
     36 C         -16.0440    6.4220   -0.9060 C.3     1  UNL1        0.0153
     37 C         -14.7840    7.1120   -1.4490 C.3     1  UNL1       -0.0191
     38 C         -13.5900    6.2440   -1.7640 C.2     1  UNL1       -0.0865
     39 C         -13.3500    5.0100   -1.2950 C.2     1  UNL1       -0.0879
     40 C         -12.1290    4.2030   -1.6360 C.3     1  UNL1       -0.0347
     41 C         -12.5060    2.7950   -2.0980 C.3     1  UNL1       -0.0488
     42 C         -13.1610    2.7580   -3.4910 C.3     1  UNL1       -0.0385
     43 C         -14.4550    1.9180   -3.5040 C.3     1  UNL1        0.0685
     44 C         -15.6770    2.8200   -3.3040 C.2     1  UNL1        0.1455
     45 C         -16.0440    3.8420   -4.3780 C.3     1  UNL1        0.0338
     46 O         -16.2860    2.8180   -2.2250 O.2     1  UNL1       -0.2966
     47 C         -14.5930    1.0400   -4.7550 C.3     1  UNL1        0.1656
     48 O         -15.7420    0.2270   -4.5940 O.3     1  UNL1       -0.3663
     49 O         -13.4380    0.2120   -4.8510 O.3     1  UNL1       -0.3511
     50 C         -13.3590   -0.5080   -6.0770 C.3     1  UNL1        0.0478
     51 C         -12.0710   -1.3070   -6.0770 C.3     1  UNL1       -0.0415
     52 CL        -17.7100    1.9970   -6.2550 Cl      1  UNL1       -0.0794
     53 O         -20.5440    2.7890   -6.2350 O.3     1  UNL1       -0.5052
     54 O         -20.1760    6.5220   -3.4350 O.3     1  UNL1       -0.5059
@<TRIPOS>BOND
     1    16    51    1
     2    15    50    1
     3    17    53    1
     4    52    30    1
     5    53    29    1
     6    25    50    1
     7    50    51    1
     8    50    49    1
     9    51    26    1
    10    51    18    1
    11    13    47    1
    12    14    48    1
    13    29    30   ar
    14    29    28   ar
    15    24    45    1
    16    30    31   ar
    17     4    28    1
    18    49    47    1
    19    28    27   ar
    20    47    48    1
    21    47    43    1
    22    31    45    1
    23    31    32   ar
    24    45    12    1
    25    45    44    1
    26    10    42    1
    27    27    32   ar
    28    27    54    1
    29    23    42    1
    30    32    33    1
    31    43    42    1
    32    43    44    1
    33    43    11    1
    34    42    41    1
    35    54     3    1
    36    44    46    2
    37    34    33    2
    38    33    35   am
    39     1    38    1
    40    21    40    1
    41    20    37    1
    42    22    41    1
    43    41    40    1
    44    41     9    1
    45    35     5    1
    46    35    36    1
    47    38    37    1
    48    38    39    2
    49    40    39    1
    50    40     8    1
    51    37    36    1
    52    37     7    1
    53    39     2    1
    54    36    19    1
    55    36     6    1
