@<TRIPOS>MOLECULE
11.67250
 54 55 0 0 0
SMALL
GASTEIGER

@<TRIPOS>ATOM
      1 H         -13.6740    2.6190   -0.4530 H       1  UNL1        0.0569
      2 H         -11.6400    0.6770   -1.6910 H       1  UNL1        0.0569
      3 H         -18.5570   -1.5730   -0.8630 H       1  UNL1        0.2922
      4 H         -19.3480   -3.0820   -3.8860 H       1  UNL1        0.0691
      5 H         -15.1070   -0.3320   -1.9910 H       1  UNL1        0.1490
      6 H         -15.5110   -0.4930    0.6860 H       1  UNL1        0.0465
      7 H         -13.2060   -0.4440   -0.2620 H       1  UNL1        0.0322
      8 H         -10.7060    3.0690   -2.0050 H       1  UNL1        0.0307
      9 H         -11.0310    1.5560   -4.0090 H       1  UNL1        0.0268
     10 H         -13.4180    3.3830   -4.5560 H       1  UNL1        0.0274
     11 H         -14.2050    1.4710   -3.0990 H       1  UNL1        0.0427
     12 H         -16.4080    2.0340   -3.0690 H       1  UNL1        0.0391
     13 H         -13.8210   -0.3090   -5.5650 H       1  UNL1        0.0914
     14 H         -14.6040   -1.7930   -4.2200 H       1  UNL1        0.2125
     15 H         -11.8180   -1.4650   -5.7990 H       1  UNL1        0.0558
     16 H          -9.9850   -2.7140   -4.6470 H       1  UNL1        0.0252
     17 H         -18.9960   -1.4600   -6.9890 H       1  UNL1        0.2922
     18 H         -10.4310   -1.9380   -3.1080 H       1  UNL1        0.0252
     19 H         -15.6770    1.2450    0.4370 H       1  UNL1        0.0465
     20 H         -13.3750    0.5800    1.1660 H       1  UNL1        0.0322
     21 H         -12.3530    3.6580   -2.1990 H       1  UNL1        0.0307
     22 H         -11.0430    3.2670   -4.3190 H       1  UNL1        0.0268
     23 H         -12.7280    2.2230   -5.6660 H       1  UNL1        0.0274
     24 H         -17.2970    2.3920   -4.5030 H       1  UNL1        0.0391
     25 H         -12.4610   -2.4650   -4.4670 H       1  UNL1        0.0558
     26 H          -9.7950   -0.9580   -4.4230 H       1  UNL1        0.0252
     27 C         -18.2940   -1.5780   -2.7640 C.ar    1  UNL1        0.1328
     28 C         -18.7880   -2.1520   -3.9240 C.ar    1  UNL1        0.0235
     29 C         -18.6020   -1.4890   -5.1250 C.ar    1  UNL1        0.1389
     30 C         -17.9150   -0.2620   -5.1840 C.ar    1  UNL1        0.0868
     31 C         -17.3400    0.3090   -4.0260 C.ar    1  UNL1       -0.0028
     32 C         -17.5480   -0.3830   -2.8070 C.ar    1  UNL1        0.0832
     33 C         -17.0720    0.1120   -1.5000 C.2     1  UNL1        0.2479
     34 O         -17.9070    0.3890   -0.6450 O.2     1  UNL1       -0.2701
     35 N         -15.7170    0.0770   -1.2810 N.am    1  UNL1       -0.3109
     36 C         -15.1930    0.3400    0.0490 C.3     1  UNL1        0.0153
     37 C         -13.6700    0.4750    0.1150 C.3     1  UNL1       -0.0191
     38 C         -13.1640    1.6760   -0.6350 C.2     1  UNL1       -0.0865
     39 C         -12.1570    1.6210   -1.5210 C.2     1  UNL1       -0.0879
     40 C         -11.7070    2.7850   -2.3520 C.3     1  UNL1       -0.0347
     41 C         -11.6240    2.4620   -3.8480 C.3     1  UNL1       -0.0488
     42 C         -12.9600    2.3850   -4.6040 C.3     1  UNL1       -0.0385
     43 C         -14.0140    1.3450   -4.1620 C.3     1  UNL1        0.0685
     44 C         -15.3230    1.6720   -4.8720 C.2     1  UNL1        0.1455
     45 C         -16.6210    1.6430   -4.0690 C.3     1  UNL1        0.0338
     46 O         -15.3200    1.9520   -6.0740 O.2     1  UNL1       -0.2966
     47 C         -13.6800   -0.1160   -4.4940 C.3     1  UNL1        0.1656
     48 O         -14.5680   -0.9440   -3.7460 O.3     1  UNL1       -0.3663
     49 O         -12.3580   -0.4290   -4.0910 O.3     1  UNL1       -0.3511
     50 C         -11.8380   -1.5990   -4.7120 C.3     1  UNL1        0.0478
     51 C         -10.4290   -1.8210   -4.1970 C.3     1  UNL1       -0.0415
     52 CL        -17.8880    0.5310   -6.7240 Cl      1  UNL1       -0.0794
     53 O         -19.1470   -2.0690   -6.2410 O.3     1  UNL1       -0.5052
     54 O         -18.5920   -2.2270   -1.5930 O.3     1  UNL1       -0.5059
@<TRIPOS>BOND
     1    17    53    1
     2    52    30    1
     3    53    29    1
     4    46    44    2
     5    15    50    1
     6    23    42    1
     7    13    47    1
     8    30    29   ar
     9    30    31   ar
    10    29    28   ar
    11    44    43    1
    12    44    45    1
    13    50    25    1
    14    50    51    1
    15    50    49    1
    16    16    51    1
    17    42    10    1
    18    42    43    1
    19    42    41    1
    20    24    45    1
    21    47    43    1
    22    47    49    1
    23    47    48    1
    24    26    51    1
    25    22    41    1
    26    14    48    1
    27    51    18    1
    28    43    11    1
    29    45    31    1
    30    45    12    1
    31    31    32   ar
    32     9    41    1
    33    28     4    1
    34    28    27   ar
    35    41    40    1
    36    32    27   ar
    37    32    33    1
    38    27    54    1
    39    40    21    1
    40    40     8    1
    41    40    39    1
    42     5    35    1
    43     2    39    1
    44    54     3    1
    45    39    38    2
    46    33    35   am
    47    33    34    2
    48    35    36    1
    49    38     1    1
    50    38    37    1
    51     7    37    1
    52    36    37    1
    53    36    19    1
    54    36     6    1
    55    37    20    1
