@<TRIPOS>MOLECULE
14.18120
 54 55 0 0 0
SMALL
GASTEIGER

@<TRIPOS>ATOM
      1 H         -20.5010    0.3760   -3.5410 H       1  UNL1        0.0569
      2 H         -21.8510    0.7130   -0.8070 H       1  UNL1        0.0569
      3 H         -19.2360    4.4420    2.6790 H       1  UNL1        0.2922
      4 H         -17.0420    2.9960    4.9770 H       1  UNL1        0.0691
      5 H         -18.9540    1.4690   -0.0910 H       1  UNL1        0.1490
      6 H         -21.2820    3.0750   -0.8620 H       1  UNL1        0.0465
      7 H         -18.9300    1.9730   -2.5100 H       1  UNL1        0.0322
      8 H         -22.5110   -1.0790   -3.1440 H       1  UNL1        0.0307
      9 H         -20.4580   -2.2190   -2.3160 H       1  UNL1        0.0268
     10 H         -21.4980   -3.4450    0.0280 H       1  UNL1        0.0274
     11 H         -19.0120   -2.5450   -0.7680 H       1  UNL1        0.0427
     12 H         -20.8470    0.1570    1.4600 H       1  UNL1        0.0391
     13 H         -19.7440   -3.2700    2.1070 H       1  UNL1        0.0914
     14 H         -17.6280   -3.6470    2.2800 H       1  UNL1        0.2125
     15 H         -20.0170   -5.5650    2.4420 H       1  UNL1        0.0558
     16 H         -19.6600   -7.8940    1.6130 H       1  UNL1        0.0252
     17 H         -16.7930   -0.4700    5.5370 H       1  UNL1        0.2922
     18 H         -19.1070   -7.2490    0.0490 H       1  UNL1        0.0252
     19 H         -19.7310    3.8790   -1.0980 H       1  UNL1        0.0465
     20 H         -20.3010    2.8400   -3.1910 H       1  UNL1        0.0322
     21 H         -23.2120   -1.1030   -1.5390 H       1  UNL1        0.0307
     22 H         -21.9210   -3.1520   -2.1000 H       1  UNL1        0.0268
     23 H         -21.7180   -1.7520    0.3550 H       1  UNL1        0.0274
     24 H         -20.3510   -1.1640    2.4580 H       1  UNL1        0.0391
     25 H         -18.3230   -5.8130    1.9350 H       1  UNL1        0.0558
     26 H         -20.7770   -7.0090    0.5480 H       1  UNL1        0.0252
     27 C         -18.3980    2.8340    3.3140 C.ar    1  UNL1        0.1328
     28 C         -17.6010    2.3270    4.3300 C.ar    1  UNL1        0.0235
     29 C         -17.5450    0.9560    4.5160 C.ar    1  UNL1        0.1389
     30 C         -18.2900    0.0830    3.7060 C.ar    1  UNL1        0.0868
     31 C         -19.1010    0.5740    2.6580 C.ar    1  UNL1       -0.0028
     32 C         -19.1100    1.9760    2.4500 C.ar    1  UNL1        0.0832
     33 C         -19.8690    2.6420    1.3640 C.2     1  UNL1        0.2479
     34 O         -20.5650    3.6130    1.6460 O.2     1  UNL1       -0.2701
     35 N         -19.6450    2.2020    0.0850 N.am    1  UNL1       -0.3109
     36 C         -20.2170    2.8970   -1.0530 C.3     1  UNL1        0.0153
     37 C         -20.0030    2.1650   -2.3800 C.3     1  UNL1       -0.0191
     38 C         -20.7300    0.8620   -2.5930 C.2     1  UNL1       -0.0865
     39 C         -21.5910    0.2580   -1.7580 C.2     1  UNL1       -0.0879
     40 C         -22.2580   -1.0470   -2.0770 C.3     1  UNL1       -0.0347
     41 C         -21.3890   -2.2610   -1.7390 C.3     1  UNL1       -0.0488
     42 C         -21.1170   -2.4510   -0.2360 C.3     1  UNL1       -0.0385
     43 C         -19.6170   -2.3560    0.1300 C.3     1  UNL1        0.0685
     44 C         -19.2310   -0.9570    0.6200 C.2     1  UNL1        0.1455
     45 C         -19.9560   -0.3650    1.8240 C.3     1  UNL1        0.0338
     46 O         -18.3960   -0.2810    0.0070 O.2     1  UNL1       -0.2966
     47 C         -19.2020   -3.4150    1.1670 C.3     1  UNL1        0.1656
     48 O         -17.8070   -3.3050    1.3900 O.3     1  UNL1       -0.3663
     49 O         -19.4960   -4.7030    0.6340 O.3     1  UNL1       -0.3511
     50 C         -19.3590   -5.7530    1.5860 C.3     1  UNL1        0.0478
     51 C         -19.7470   -7.0560    0.9160 C.3     1  UNL1       -0.0415
     52 CL        -18.2070   -1.6070    4.0860 Cl      1  UNL1       -0.0794
     53 O         -16.7530    0.5040    5.5390 O.3     1  UNL1       -0.5052
     54 O         -18.4500    4.2010    3.2180 O.3     1  UNL1       -0.5059
@<TRIPOS>BOND
     1     1    38    1
     2    20    37    1
     3     8    40    1
     4    38    37    1
     5    38    39    2
     6     7    37    1
     7    37    36    1
     8     9    41    1
     9    22    41    1
    10    40    39    1
    11    40    41    1
    12    40    21    1
    13    39     2    1
    14    41    42    1
    15    19    36    1
    16    36     6    1
    17    36    35    1
    18    11    43    1
    19    42    10    1
    20    42    43    1
    21    42    23    1
    22     5    35    1
    23    46    44    2
    24    18    51    1
    25    35    33   am
    26    43    44    1
    27    43    47    1
    28    26    51    1
    29    44    45    1
    30    49    47    1
    31    49    50    1
    32    51    50    1
    33    51    16    1
    34    47    48    1
    35    47    13    1
    36    33    34    2
    37    33    32    1
    38    48    14    1
    39    12    45    1
    40    50    25    1
    41    50    15    1
    42    45    24    1
    43    45    31    1
    44    32    31   ar
    45    32    27   ar
    46    31    30   ar
    47     3    54    1
    48    54    27    1
    49    27    28   ar
    50    30    52    1
    51    30    29   ar
    52    28    29   ar
    53    28     4    1
    54    29    53    1
    55    17    53    1
