@<TRIPOS>MOLECULE
19.82512
 54 55 0 0 0
SMALL
GASTEIGER

@<TRIPOS>ATOM
      1 H          -9.7880    1.6110    1.0480 H       1  UNL1        0.0569
      2 H          -9.3720   -1.4160    0.7410 H       1  UNL1        0.0569
      3 H         -14.1170    3.0940    5.0900 H       1  UNL1        0.2922
      4 H         -16.1320    0.4420    6.1040 H       1  UNL1        0.0691
      5 H         -10.8190    2.6520    3.3220 H       1  UNL1        0.1490
      6 H         -11.3390   -0.2860    3.6250 H       1  UNL1        0.0465
      7 H          -9.0040   -0.6110    3.0520 H       1  UNL1        0.0322
      8 H          -8.7040   -0.5300   -1.4880 H       1  UNL1        0.0307
      9 H         -10.8430   -1.8530   -1.5200 H       1  UNL1        0.0268
     10 H         -12.5740    0.3300   -2.3370 H       1  UNL1        0.0274
     11 H         -12.6800   -1.9350   -0.3530 H       1  UNL1        0.0427
     12 H         -12.4870   -1.1580    1.7540 H       1  UNL1        0.0391
     13 H         -14.9140   -0.8070   -2.1060 H       1  UNL1        0.0914
     14 H         -15.8540   -2.5550   -1.4510 H       1  UNL1        0.2125
     15 H         -14.9480   -1.5090   -4.3320 H       1  UNL1        0.0558
     16 H         -14.1670   -3.1350   -6.0580 H       1  UNL1        0.0252
     17 H         -16.5500   -2.5120    4.2300 H       1  UNL1        0.2922
     18 H         -12.9590   -3.7660   -4.9120 H       1  UNL1        0.0252
     19 H         -10.3810    0.6260    4.7700 H       1  UNL1        0.0465
     20 H          -8.6600    1.1050    3.1700 H       1  UNL1        0.0322
     21 H          -9.6170    0.9490   -1.2550 H       1  UNL1        0.0307
     22 H         -10.6620   -0.7010   -2.8260 H       1  UNL1        0.0268
     23 H         -11.9930    0.7630   -0.7610 H       1  UNL1        0.0274
     24 H         -12.4450    0.5820    1.4720 H       1  UNL1        0.0391
     25 H         -15.0860   -3.1870   -3.7380 H       1  UNL1        0.0558
     26 H         -12.8220   -2.1130   -5.4980 H       1  UNL1        0.0252
     27 C         -14.5720    1.2460    4.8560 C.ar    1  UNL1        0.1328
     28 C         -15.5060    0.2880    5.2300 C.ar    1  UNL1        0.0235
     29 C         -15.6290   -0.8640    4.4680 C.ar    1  UNL1        0.1389
     30 C         -14.8480   -1.0560    3.3190 C.ar    1  UNL1        0.0868
     31 C         -13.9120   -0.0840    2.9090 C.ar    1  UNL1       -0.0028
     32 C         -13.7370    1.0490    3.7390 C.ar    1  UNL1        0.0832
     33 C         -12.7230    2.1010    3.4920 C.2     1  UNL1        0.2479
     34 O         -13.0990    3.2710    3.4470 O.2     1  UNL1       -0.2701
     35 N         -11.3830    1.8160    3.4270 N.am    1  UNL1       -0.3109
     36 C         -10.6760    0.5750    3.7160 C.3     1  UNL1        0.0153
     37 C          -9.4220    0.3830    2.8500 C.3     1  UNL1       -0.0191
     38 C          -9.6270    0.5820    1.3690 C.2     1  UNL1       -0.0865
     39 C          -9.5570   -0.3870    0.4400 C.2     1  UNL1       -0.0879
     40 C          -9.6240   -0.1280   -1.0450 C.3     1  UNL1       -0.0347
     41 C         -10.8230   -0.7800   -1.7440 C.3     1  UNL1       -0.0488
     42 C         -12.1630   -0.1000   -1.4140 C.3     1  UNL1       -0.0385
     43 C         -13.1900   -1.0710   -0.7970 C.3     1  UNL1        0.0685
     44 C         -13.9100   -0.3710    0.3510 C.2     1  UNL1        0.1455
     45 C         -13.1120   -0.2640    1.6400 C.3     1  UNL1        0.0338
     46 O         -15.0130    0.1600    0.2150 O.2     1  UNL1       -0.2966
     47 C         -14.2120   -1.5980   -1.8090 C.3     1  UNL1        0.1656
     48 O         -14.9230   -2.6690   -1.2020 O.3     1  UNL1       -0.3663
     49 O         -13.5150   -2.0830   -2.9540 O.3     1  UNL1       -0.3511
     50 C         -14.3840   -2.4000   -4.0350 C.3     1  UNL1        0.0478
     51 C         -13.5400   -2.8830   -5.1980 C.3     1  UNL1       -0.0415
     52 CL        -15.0380   -2.5510    2.4590 Cl      1  UNL1       -0.0794
     53 O         -16.5460   -1.7910    4.8870 O.3     1  UNL1       -0.5052
     54 O         -14.5210    2.3780    5.6280 O.3     1  UNL1       -0.5059
@<TRIPOS>BOND
     1    16    51    1
     2    26    51    1
     3    51    18    1
     4    51    50    1
     5    15    50    1
     6    50    25    1
     7    50    49    1
     8    49    47    1
     9    22    41    1
    10    10    42    1
    11    13    47    1
    12    47    48    1
    13    47    43    1
    14    41     9    1
    15    41    42    1
    16    41    40    1
    17     8    40    1
    18    14    48    1
    19    42    43    1
    20    42    23    1
    21    21    40    1
    22    40    39    1
    23    43    11    1
    24    43    44    1
    25    46    44    2
    26    44    45    1
    27    39     2    1
    28    39    38    2
    29     1    38    1
    30    38    37    1
    31    24    45    1
    32    45    12    1
    33    45    31    1
    34    52    30    1
    35    37     7    1
    36    37    20    1
    37    37    36    1
    38    31    30   ar
    39    31    32   ar
    40    30    29   ar
    41     5    35    1
    42    35    33   am
    43    35    36    1
    44    34    33    2
    45    33    32    1
    46     6    36    1
    47    36    19    1
    48    32    27   ar
    49    17    53    1
    50    29    53    1
    51    29    28   ar
    52    27    28   ar
    53    27    54    1
    54     3    54    1
    55    28     4    1
