@<TRIPOS>MOLECULE
15.11360
 54 55 0 0 0
SMALL
GASTEIGER

@<TRIPOS>ATOM
      1 H         -13.0860    5.7530   -1.1090 H       1  UNL1        0.0569
      2 H         -15.4210    5.3210   -3.0530 H       1  UNL1        0.0569
      3 H         -18.9440    2.0410    0.6630 H       1  UNL1        0.2922
      4 H         -18.4330   -1.3580    0.1600 H       1  UNL1        0.0691
      5 H         -15.7250    3.0590   -1.0180 H       1  UNL1        0.1490
      6 H         -17.1100    5.0820    0.3700 H       1  UNL1        0.0465
      7 H         -14.6350    4.7880    0.4870 H       1  UNL1        0.0322
      8 H         -12.5710    6.2690   -3.4730 H       1  UNL1        0.0307
      9 H         -12.2170    3.8130   -3.2450 H       1  UNL1        0.0268
     10 H         -13.0260    2.5260   -5.4100 H       1  UNL1        0.0274
     11 H         -14.8100    2.9540   -2.9870 H       1  UNL1        0.0427
     12 H         -17.1640    3.0770   -3.6050 H       1  UNL1        0.0391
     13 H         -13.7880    0.2790   -4.0250 H       1  UNL1        0.0914
     14 H         -14.1910   -0.2460   -1.9550 H       1  UNL1        0.2125
     15 H         -11.5440   -0.2500   -3.8030 H       1  UNL1        0.0558
     16 H          -9.4930   -0.0990   -2.3860 H       1  UNL1        0.0252
     17 H         -17.6200   -2.7370   -2.9730 H       1  UNL1        0.2922
     18 H         -10.2020    1.2810   -1.5140 H       1  UNL1        0.0252
     19 H         -16.9920    5.6160   -1.3050 H       1  UNL1        0.0465
     20 H         -15.1370    6.4550    0.2290 H       1  UNL1        0.0322
     21 H         -13.8090    6.0120   -4.6830 H       1  UNL1        0.0307
     22 H         -11.8970    4.4410   -4.8490 H       1  UNL1        0.0268
     23 H         -14.2920    3.7310   -5.4950 H       1  UNL1        0.0274
     24 H         -17.8510    1.8910   -4.6680 H       1  UNL1        0.0391
     25 H         -11.9510   -0.4130   -2.0730 H       1  UNL1        0.0558
     26 H          -9.8010    1.4430   -3.2190 H       1  UNL1        0.0252
     27 C         -18.1580    0.6870   -0.4500 C.ar    1  UNL1        0.1328
     28 C         -18.1370   -0.6850   -0.6400 C.ar    1  UNL1        0.0235
     29 C         -17.7770   -1.1830   -1.8830 C.ar    1  UNL1        0.1389
     30 C         -17.4290   -0.3230   -2.9400 C.ar    1  UNL1        0.0868
     31 C         -17.3880    1.0770   -2.7570 C.ar    1  UNL1       -0.0028
     32 C         -17.7550    1.5600   -1.4780 C.ar    1  UNL1        0.0832
     33 C         -17.7950    2.9980   -1.1570 C.2     1  UNL1        0.2479
     34 O         -18.8810    3.5310   -0.9670 O.2     1  UNL1       -0.2701
     35 N         -16.5790    3.6070   -0.9710 N.am    1  UNL1       -0.3109
     36 C         -16.5080    4.9940   -0.5430 C.3     1  UNL1        0.0153
     37 C         -15.0820    5.4690   -0.2480 C.3     1  UNL1       -0.0191
     38 C         -14.1210    5.5810   -1.4040 C.2     1  UNL1       -0.0865
     39 C         -14.4010    5.4800   -2.7130 C.2     1  UNL1       -0.0879
     40 C         -13.3570    5.5700   -3.7870 C.3     1  UNL1       -0.0347
     41 C         -12.7030    4.2270   -4.1340 C.3     1  UNL1       -0.0488
     42 C         -13.6370    3.1990   -4.7920 C.3     1  UNL1       -0.0385
     43 C         -14.4780    2.3390   -3.8210 C.3     1  UNL1        0.0685
     44 C         -15.7200    1.8650   -4.5630 C.2     1  UNL1        0.1455
     45 C         -17.0790    2.0250   -3.8980 C.3     1  UNL1        0.0338
     46 O         -15.6270    1.3940   -5.7010 O.2     1  UNL1       -0.2966
     47 C         -13.7590    1.0910   -3.2870 C.3     1  UNL1        0.1656
     48 O         -14.4450    0.6790   -2.1090 O.3     1  UNL1       -0.3663
     49 O         -12.4220    1.4110   -2.9370 O.3     1  UNL1       -0.3511
     50 C         -11.5750    0.2720   -2.8400 C.3     1  UNL1        0.0478
     51 C         -10.1840    0.7450   -2.4680 C.3     1  UNL1       -0.0415
     52 CL        -17.0940   -1.0660   -4.4690 Cl      1  UNL1       -0.0794
     53 O         -17.8050   -2.5440   -2.0350 O.3     1  UNL1       -0.5052
     54 O         -18.6080    1.1270    0.7670 O.3     1  UNL1       -0.5059
@<TRIPOS>BOND
     1    46    44    2
     2    23    42    1
     3    10    42    1
     4    22    41    1
     5    42    41    1
     6    42    43    1
     7    21    40    1
     8    24    45    1
     9    44    45    1
    10    44    43    1
    11    52    30    1
    12    41    40    1
    13    41     9    1
    14    13    47    1
    15    45    12    1
    16    45    31    1
    17    43    47    1
    18    43    11    1
    19    15    50    1
    20    40     8    1
    21    40    39    1
    22    47    49    1
    23    47    48    1
    24    26    51    1
    25     2    39    1
    26    17    53    1
    27    30    31   ar
    28    30    29   ar
    29    49    50    1
    30    50    51    1
    31    50    25    1
    32    31    32   ar
    33    39    38    2
    34    51    16    1
    35    51    18    1
    36    48    14    1
    37    53    29    1
    38    29    28   ar
    39    32    33    1
    40    32    27   ar
    41    38     1    1
    42    38    37    1
    43    19    36    1
    44    33    35   am
    45    33    34    2
    46     5    35    1
    47    35    36    1
    48    28    27   ar
    49    28     4    1
    50    36    37    1
    51    36     6    1
    52    27    54    1
    53    37    20    1
    54    37     7    1
    55     3    54    1
