@<TRIPOS>MOLECULE
10.22202
 54 55 0 0 0
SMALL
GASTEIGER

@<TRIPOS>ATOM
      1 H         -12.2340    3.3790   -8.4410 H       1  UNL1        0.0569
      2 H         -14.5380    1.6300   -7.4210 H       1  UNL1        0.0569
      3 H         -18.0870    5.2810   -8.5610 H       1  UNL1        0.2922
      4 H         -19.1490    7.6320   -6.2020 H       1  UNL1        0.0691
      5 H         -15.8470    5.0380   -7.9240 H       1  UNL1        0.1490
      6 H         -16.2290    3.7350  -10.0890 H       1  UNL1        0.0465
      7 H         -13.9850    4.6210   -9.5070 H       1  UNL1        0.0322
      8 H         -11.5550    1.9500   -6.6620 H       1  UNL1        0.0307
      9 H         -13.1460    3.1500   -5.0730 H       1  UNL1        0.0268
     10 H         -13.8090    0.3230   -4.1340 H       1  UNL1        0.0274
     11 H         -13.9770    2.4820   -2.6220 H       1  UNL1        0.0427
     12 H         -16.9800    2.2190   -4.9970 H       1  UNL1        0.0391
     13 H         -14.8810    0.4060   -1.8750 H       1  UNL1        0.0914
     14 H         -16.6610   -0.4660   -2.6420 H       1  UNL1        0.2125
     15 H         -16.0030    0.4820    0.1750 H       1  UNL1        0.0558
     16 H         -17.8160    1.4750    1.5740 H       1  UNL1        0.0252
     17 H         -19.1150    7.1070   -2.7240 H       1  UNL1        0.2922
     18 H         -18.1480    2.6670    0.2950 H       1  UNL1        0.0252
     19 H         -15.9470    2.2860   -9.1290 H       1  UNL1        0.0465
     20 H         -13.9120    3.1130  -10.4100 H       1  UNL1        0.0322
     21 H         -12.5110    0.4870   -6.4540 H       1  UNL1        0.0307
     22 H         -12.0980    1.9350   -4.3580 H       1  UNL1        0.0268
     23 H         -14.9190    1.1540   -5.2130 H       1  UNL1        0.0274
     24 H         -17.6440    2.6410   -3.4440 H       1  UNL1        0.0391
     25 H         -17.5660    0.4480   -0.6880 H       1  UNL1        0.0558
     26 H         -16.6070    2.7080    1.1430 H       1  UNL1        0.0252
     27 C         -18.2110    5.7550   -6.6960 C.ar    1  UNL1        0.1328
     28 C         -18.7290    6.7040   -5.8230 C.ar    1  UNL1        0.0235
     29 C         -18.7150    6.4490   -4.4610 C.ar    1  UNL1        0.1389
     30 C         -18.1860    5.2520   -3.9560 C.ar    1  UNL1        0.0868
     31 C         -17.6510    4.2740   -4.8230 C.ar    1  UNL1       -0.0028
     32 C         -17.6580    4.5520   -6.2110 C.ar    1  UNL1        0.0832
     33 C         -17.1260    3.5800   -7.2020 C.2     1  UNL1        0.2479
     34 O         -17.5670    2.4410   -7.2550 O.2     1  UNL1       -0.2701
     35 N         -16.1940    4.0950   -8.0760 N.am    1  UNL1       -0.3109
     36 C         -15.6900    3.3470   -9.2170 C.3     1  UNL1        0.0153
     37 C         -14.1850    3.5430   -9.4390 C.3     1  UNL1       -0.0191
     38 C         -13.2450    2.9750   -8.4060 C.2     1  UNL1       -0.0865
     39 C         -13.5400    2.0590   -7.4690 C.2     1  UNL1       -0.0879
     40 C         -12.5620    1.5820   -6.4300 C.3     1  UNL1       -0.0347
     41 C         -12.9530    2.0720   -5.0330 C.3     1  UNL1       -0.0488
     42 C         -14.1550    1.3170   -4.4450 C.3     1  UNL1       -0.0385
     43 C         -14.7740    2.0540   -3.2460 C.3     1  UNL1        0.0685
     44 C         -15.5950    3.2490   -3.7410 C.2     1  UNL1        0.1455
     45 C         -17.0140    3.0170   -4.2550 C.3     1  UNL1        0.0338
     46 O         -15.0630    4.3650   -3.8010 O.2     1  UNL1       -0.2966
     47 C         -15.5800    1.1140   -2.3390 C.3     1  UNL1        0.1656
     48 O         -16.5210    0.3780   -3.1010 O.3     1  UNL1       -0.3663
     49 O         -16.2190    1.8840   -1.3330 O.3     1  UNL1       -0.3511
     50 C         -16.7810    1.0990   -0.2880 C.3     1  UNL1        0.0478
     51 C         -17.3750    2.0360    0.7460 C.3     1  UNL1       -0.0415
     52 CL        -18.2190    5.0270   -2.2340 Cl      1  UNL1       -0.0794
     53 O         -19.2370    7.4140   -3.6420 O.3     1  UNL1       -0.5052
     54 O         -18.2920    6.0710   -8.0280 O.3     1  UNL1       -0.5059
@<TRIPOS>BOND
     1    20    37    1
     2     6    36    1
     3     7    37    1
     4    37    36    1
     5    37    38    1
     6    36    19    1
     7    36    35    1
     8     3    54    1
     9     1    38    1
    10    38    39    2
    11    35     5    1
    12    35    33   am
    13    54    27    1
    14    39     2    1
    15    39    40    1
    16    34    33    2
    17    33    32    1
    18    27    32   ar
    19    27    28   ar
    20     8    40    1
    21    21    40    1
    22    40    41    1
    23    32    31   ar
    24     4    28    1
    25    28    29   ar
    26    23    42    1
    27     9    41    1
    28    41    42    1
    29    41    22    1
    30    12    45    1
    31    31    45    1
    32    31    30   ar
    33    29    30   ar
    34    29    53    1
    35    42    10    1
    36    42    43    1
    37    45    44    1
    38    45    24    1
    39    30    52    1
    40    46    44    2
    41    44    43    1
    42    53    17    1
    43    43    11    1
    44    43    47    1
    45    48    14    1
    46    48    47    1
    47    47    13    1
    48    47    49    1
    49    49    50    1
    50    25    50    1
    51    50    15    1
    52    50    51    1
    53    18    51    1
    54    51    26    1
    55    51    16    1
