@<TRIPOS>MOLECULE
9.11050
 54 55 0 0 0
SMALL
GASTEIGER

@<TRIPOS>ATOM
      1 H         -18.7750    2.8390   -5.0970 H       1  UNL1        0.0569
      2 H         -20.6230    0.9550   -3.5270 H       1  UNL1        0.0569
      3 H         -18.6920    4.8000    0.9880 H       1  UNL1        0.2922
      4 H         -15.5640    4.8500    2.5310 H       1  UNL1        0.0691
      5 H         -17.2090    4.7000   -2.8190 H       1  UNL1        0.1490
      6 H         -18.9260    5.3010   -4.1320 H       1  UNL1        0.0465
      7 H         -21.0270    4.0260   -4.1940 H       1  UNL1        0.0322
      8 H         -18.3170    0.4820   -5.5460 H       1  UNL1        0.0307
      9 H         -19.7550   -1.5790   -3.8130 H       1  UNL1        0.0268
     10 H         -17.8230   -1.7360   -2.3540 H       1  UNL1        0.0274
     11 H         -16.7250    0.5780   -4.0010 H       1  UNL1        0.0427
     12 H         -15.0420    2.2590   -2.7920 H       1  UNL1        0.0391
     13 H         -15.2700   -1.6560   -2.4850 H       1  UNL1        0.0914
     14 H         -13.5590   -0.8160   -3.4600 H       1  UNL1        0.2125
     15 H         -15.0000   -3.6350   -3.6790 H       1  UNL1        0.0558
     16 H         -14.7680   -4.7500   -5.9010 H       1  UNL1        0.0252
     17 H         -12.7810    3.0480    1.3490 H       1  UNL1        0.2922
     18 H         -15.3600   -3.2740   -6.7000 H       1  UNL1        0.0252
     19 H         -19.8580    5.5530   -2.6500 H       1  UNL1        0.0465
     20 H         -20.6520    3.2200   -2.6720 H       1  UNL1        0.0322
     21 H         -19.9130   -0.2100   -5.7700 H       1  UNL1        0.0307
     22 H         -18.3130   -1.8220   -4.7720 H       1  UNL1        0.0268
     23 H         -18.6000   -0.1810   -2.2100 H       1  UNL1        0.0274
     24 H         -16.7450    2.5770   -2.8640 H       1  UNL1        0.0391
     25 H         -13.9070   -2.7110   -4.7470 H       1  UNL1        0.0558
     26 H         -16.4360   -4.1850   -5.6480 H       1  UNL1        0.0252
     27 C         -16.8190    4.4090    0.8380 C.ar    1  UNL1        0.1328
     28 C         -15.6370    4.3590    1.5660 C.ar    1  UNL1        0.0235
     29 C         -14.5580    3.6580    1.0500 C.ar    1  UNL1        0.1389
     30 C         -14.6520    2.9930   -0.1830 C.ar    1  UNL1        0.0868
     31 C         -15.8410    3.0420   -0.9470 C.ar    1  UNL1       -0.0028
     32 C         -16.9240    3.7930   -0.4260 C.ar    1  UNL1        0.0832
     33 C         -18.2060    4.0040   -1.1460 C.2     1  UNL1        0.2479
     34 O         -19.2610    3.8910   -0.5300 O.2     1  UNL1       -0.2701
     35 N         -18.1150    4.4580   -2.4420 N.am    1  UNL1       -0.3109
     36 C         -19.2880    4.8110   -3.2210 C.3     1  UNL1        0.0153
     37 C         -20.2040    3.6330   -3.5840 C.3     1  UNL1       -0.0191
     38 C         -19.5250    2.5390   -4.3680 C.2     1  UNL1       -0.0865
     39 C         -19.8400    1.2410   -4.2290 C.2     1  UNL1       -0.0879
     40 C         -19.2010    0.1240   -5.0060 C.3     1  UNL1       -0.0347
     41 C         -18.8280   -1.0890   -4.1420 C.3     1  UNL1       -0.0488
     42 C         -17.9910   -0.7920   -2.8900 C.3     1  UNL1       -0.0385
     43 C         -16.6410   -0.1010   -3.1460 C.3     1  UNL1        0.0685
     44 C         -16.2860    0.7410   -1.9300 C.2     1  UNL1        0.1455
     45 C         -15.9640    2.2030   -2.2040 C.3     1  UNL1        0.0338
     46 O         -16.2420    0.2460   -0.8030 O.2     1  UNL1       -0.2966
     47 C         -15.4770   -1.0640   -3.3860 C.3     1  UNL1        0.1656
     48 O         -14.3310   -0.2860   -3.7160 O.3     1  UNL1       -0.3663
     49 O         -15.7980   -1.9050   -4.4860 O.3     1  UNL1       -0.3511
     50 C         -14.9410   -3.0360   -4.5940 C.3     1  UNL1        0.0478
     51 C         -15.3970   -3.8650   -5.7790 C.3     1  UNL1       -0.0415
     52 CL        -13.2560    2.1130   -0.7270 Cl      1  UNL1       -0.0794
     53 O         -13.4160    3.6310    1.8040 O.3     1  UNL1       -0.5052
     54 O         -17.8580    5.0860    1.4230 O.3     1  UNL1       -0.5059
@<TRIPOS>BOND
     1    18    51    1
     2    16    51    1
     3    51    26    1
     4    51    50    1
     5    21    40    1
     6     8    40    1
     7     1    38    1
     8    40    39    1
     9    40    41    1
    10    22    41    1
    11    25    50    1
    12    50    49    1
    13    50    15    1
    14    49    47    1
    15    38    39    2
    16    38    37    1
    17    39     2    1
    18     7    37    1
    19    41     9    1
    20    41    42    1
    21     6    36    1
    22    11    43    1
    23    48    14    1
    24    48    47    1
    25    37    36    1
    26    37    20    1
    27    47    43    1
    28    47    13    1
    29    36    19    1
    30    36    35    1
    31    43    42    1
    32    43    44    1
    33    42    10    1
    34    42    23    1
    35    24    45    1
    36     5    35    1
    37    12    45    1
    38    35    33   am
    39    45    44    1
    40    45    31    1
    41    44    46    2
    42    33    34    2
    43    33    32    1
    44    31    32   ar
    45    31    30   ar
    46    52    30    1
    47    32    27   ar
    48    30    29   ar
    49    27    54    1
    50    27    28   ar
    51     3    54    1
    52    29    28   ar
    53    29    53    1
    54    17    53    1
    55    28     4    1
