@<TRIPOS>MOLECULE
5.00722
 54 55 0 0 0
SMALL
GASTEIGER

@<TRIPOS>ATOM
      1 H         -13.8480    0.9460   -7.6540 H       1  UNL1        0.0569
      2 H         -16.1770    2.8350   -6.9920 H       1  UNL1        0.0569
      3 H         -17.3450   -1.1720  -12.8210 H       1  UNL1        0.2922
      4 H         -15.7740   -0.3060  -15.8290 H       1  UNL1        0.0691
      5 H         -14.3670    0.4110  -10.5380 H       1  UNL1        0.1490
      6 H         -14.6060   -1.1480   -8.8680 H       1  UNL1        0.0465
      7 H         -16.1390   -0.3610   -7.0550 H       1  UNL1        0.0322
      8 H         -13.0830    3.1100   -6.9880 H       1  UNL1        0.0307
      9 H         -13.3640    5.4640   -7.4140 H       1  UNL1        0.0268
     10 H         -14.7080    5.6890   -9.4810 H       1  UNL1        0.0274
     11 H         -12.6640    3.5620   -9.1360 H       1  UNL1        0.0427
     12 H         -15.1880    4.0210  -11.9260 H       1  UNL1        0.0391
     13 H         -11.8020    4.4680  -11.3330 H       1  UNL1        0.0914
     14 H         -10.9350    6.0480  -10.2130 H       1  UNL1        0.2125
     15 H         -11.9980    6.1750  -12.9990 H       1  UNL1        0.0558
     16 H         -13.1920    8.2130  -13.8120 H       1  UNL1        0.0252
     17 H         -13.8510    2.6140  -16.2600 H       1  UNL1        0.2922
     18 H         -14.3580    8.0620  -12.4770 H       1  UNL1        0.0252
     19 H         -16.3130   -1.3800   -9.2600 H       1  UNL1        0.0465
     20 H         -16.8860    0.7930   -8.1680 H       1  UNL1        0.0322
     21 H         -14.1180    3.7470   -5.7270 H       1  UNL1        0.0307
     22 H         -15.0960    5.3870   -7.1490 H       1  UNL1        0.0268
     23 H         -15.4380    4.1350   -9.2170 H       1  UNL1        0.0274
     24 H         -15.9110    2.8330  -10.8760 H       1  UNL1        0.0391
     25 H         -12.0730    7.4250  -11.7290 H       1  UNL1        0.0558
     26 H         -14.3110    6.8330  -13.7320 H       1  UNL1        0.0252
     27 C         -16.1030   -0.0160  -13.7220 C.ar    1  UNL1        0.1328
     28 C         -15.5960    0.3300  -14.9670 C.ar    1  UNL1        0.0235
     29 C         -14.8510    1.4930  -15.0890 C.ar    1  UNL1        0.1389
     30 C         -14.6420    2.3380  -13.9880 C.ar    1  UNL1        0.0868
     31 C         -15.1780    2.0250  -12.7220 C.ar    1  UNL1       -0.0028
     32 C         -15.8550    0.7900  -12.5930 C.ar    1  UNL1        0.0832
     33 C         -16.2960    0.2380  -11.2900 C.2     1  UNL1        0.2479
     34 O         -17.4420   -0.1840  -11.1820 O.2     1  UNL1       -0.2701
     35 N         -15.3180    0.1040  -10.3340 N.am    1  UNL1       -0.3109
     36 C         -15.5390   -0.6210   -9.0970 C.3     1  UNL1        0.0153
     37 C         -15.9490    0.2770   -7.9260 C.3     1  UNL1       -0.0191
     38 C         -14.8820    1.2720   -7.5540 C.2     1  UNL1       -0.0865
     39 C         -15.1440    2.5140   -7.1180 C.2     1  UNL1       -0.0879
     40 C         -14.0790    3.5250   -6.8000 C.3     1  UNL1       -0.0347
     41 C         -14.2480    4.8370   -7.5780 C.3     1  UNL1       -0.0488
     42 C         -14.5030    4.6870   -9.0870 C.3     1  UNL1       -0.0385
     43 C         -13.3430    4.0260   -9.8640 C.3     1  UNL1        0.0685
     44 C         -13.7780    2.8770  -10.7690 C.2     1  UNL1        0.1455
     45 C         -15.0710    2.9970  -11.5590 C.3     1  UNL1        0.0338
     46 O         -13.0830    1.8560  -10.8440 O.2     1  UNL1       -0.2966
     47 C         -12.5050    5.0130  -10.6880 C.3     1  UNL1        0.1656
     48 O         -11.7690    5.8170   -9.7750 O.3     1  UNL1       -0.3663
     49 O         -13.3650    5.8210  -11.4830 O.3     1  UNL1       -0.3511
     50 C         -12.6660    6.7280  -12.3300 C.3     1  UNL1        0.0478
     51 C         -13.6850    7.5070  -13.1390 C.3     1  UNL1       -0.0415
     52 CL        -13.6970    3.7670  -14.2450 Cl      1  UNL1       -0.0794
     53 O         -14.3490    1.7790  -16.3310 O.3     1  UNL1       -0.5052
     54 O         -16.8410   -1.1690  -13.6650 O.3     1  UNL1       -0.5059
@<TRIPOS>BOND
     1    53    17    1
     2    53    29    1
     3     4    28    1
     4    29    28   ar
     5    29    30   ar
     6    28    27   ar
     7    52    30    1
     8    30    31   ar
     9    16    51    1
    10    26    51    1
    11    27    54    1
    12    27    32   ar
    13    54     3    1
    14    51    18    1
    15    51    50    1
    16    15    50    1
    17    31    32   ar
    18    31    45    1
    19    32    33    1
    20    50    25    1
    21    50    49    1
    22    12    45    1
    23    45    24    1
    24    45    44    1
    25    49    47    1
    26    13    47    1
    27    33    34    2
    28    33    35   am
    29    46    44    2
    30    44    43    1
    31    47    43    1
    32    47    48    1
    33     5    35    1
    34    35    36    1
    35    14    48    1
    36    43    11    1
    37    43    42    1
    38    10    42    1
    39    19    36    1
    40    23    42    1
    41    36     6    1
    42    36    37    1
    43    42    41    1
    44    20    37    1
    45    37    38    1
    46    37     7    1
    47     1    38    1
    48    41     9    1
    49    41    22    1
    50    41    40    1
    51    38    39    2
    52    39     2    1
    53    39    40    1
    54     8    40    1
    55    40    21    1
