@<TRIPOS>MOLECULE
12.34266
 54 55 0 0 0
SMALL
GASTEIGER

@<TRIPOS>ATOM
      1 H         -18.1390    5.1300    0.1260 H       1  UNL1        0.0569
      2 H         -18.3360    4.6640   -2.8980 H       1  UNL1        0.0569
      3 H         -17.2600   10.9320   -2.7380 H       1  UNL1        0.2922
      4 H         -14.8470   11.7200   -5.1270 H       1  UNL1        0.0691
      5 H         -17.8870    7.0970   -4.0500 H       1  UNL1        0.1490
      6 H         -19.8670    6.5170   -3.1240 H       1  UNL1        0.0465
      7 H         -20.1350    6.5500   -0.6190 H       1  UNL1        0.0322
      8 H         -17.8040    2.3910   -2.0850 H       1  UNL1        0.0307
      9 H         -15.4320    2.3310   -2.2740 H       1  UNL1        0.0268
     10 H         -14.5530    3.5720   -0.5200 H       1  UNL1        0.0274
     11 H         -13.6800    4.2790   -3.1310 H       1  UNL1        0.0427
     12 H         -14.9920    5.8460   -4.3660 H       1  UNL1        0.0391
     13 H         -12.3890    5.3540   -0.5730 H       1  UNL1        0.0914
     14 H         -10.8310    5.7350   -1.9050 H       1  UNL1        0.2125
     15 H         -11.1340    3.8070    0.6420 H       1  UNL1        0.0558
     16 H          -9.9990    1.5850    0.7280 H       1  UNL1        0.0252
     17 H         -12.4420    9.4300   -6.3010 H       1  UNL1        0.2922
     18 H         -10.7710    1.1350   -0.8110 H       1  UNL1        0.0252
     19 H         -19.9260    8.1440   -2.4370 H       1  UNL1        0.0465
     20 H         -18.6130    7.4070   -0.4610 H       1  UNL1        0.0322
     21 H         -17.2240    2.9920   -0.5360 H       1  UNL1        0.0307
     22 H         -15.9320    3.7230   -3.2200 H       1  UNL1        0.0268
     23 H         -15.4870    5.0090   -0.8510 H       1  UNL1        0.0274
     24 H         -16.0960    6.2470   -3.0820 H       1  UNL1        0.0391
     25 H         -10.1250    3.5480   -0.8070 H       1  UNL1        0.0558
     26 H         -11.7640    1.3890    0.6190 H       1  UNL1        0.0252
     27 C         -15.9560   10.2720   -3.9830 C.ar    1  UNL1        0.1328
     28 C         -14.9360   10.6780   -4.8340 C.ar    1  UNL1        0.0235
     29 C         -14.0250    9.7380   -5.2880 C.ar    1  UNL1        0.1389
     30 C         -14.1150    8.3970   -4.8890 C.ar    1  UNL1        0.0868
     31 C         -15.1520    7.9580   -4.0330 C.ar    1  UNL1       -0.0028
     32 C         -16.1010    8.9200   -3.6060 C.ar    1  UNL1        0.0832
     33 C         -17.2870    8.6070   -2.7650 C.2     1  UNL1        0.2479
     34 O         -17.5710    9.3580   -1.8360 O.2     1  UNL1       -0.2701
     35 N         -18.0850    7.5620   -3.1740 N.am    1  UNL1       -0.3109
     36 C         -19.3260    7.2280   -2.4910 C.3     1  UNL1        0.0153
     37 C         -19.1420    6.6650   -1.0720 C.3     1  UNL1       -0.0191
     38 C         -18.4160    5.3530   -0.9050 C.2     1  UNL1       -0.0865
     39 C         -18.0660    4.4810   -1.8620 C.2     1  UNL1       -0.0879
     40 C         -17.2770    3.2240   -1.6060 C.3     1  UNL1       -0.0347
     41 C         -15.8670    3.3360   -2.1960 C.3     1  UNL1       -0.0488
     42 C         -14.9270    4.2010   -1.3360 C.3     1  UNL1       -0.0385
     43 C         -13.7730    4.7970   -2.1680 C.3     1  UNL1        0.0685
     44 C         -14.0890    6.2650   -2.4570 C.2     1  UNL1        0.1455
     45 C         -15.1440    6.5300   -3.5240 C.3     1  UNL1        0.0338
     46 O         -13.5890    7.1800   -1.8000 O.2     1  UNL1       -0.2966
     47 C         -12.4130    4.7130   -1.4640 C.3     1  UNL1        0.1656
     48 O         -11.4140    5.1260   -2.3890 O.3     1  UNL1       -0.3663
     49 O         -12.1710    3.3580   -1.0920 O.3     1  UNL1       -0.3511
     50 C         -11.0180    3.2110   -0.2700 C.3     1  UNL1        0.0478
     51 C         -10.8730    1.7460    0.0920 C.3     1  UNL1       -0.0415
     52 CL        -12.9090    7.2990   -5.4870 Cl      1  UNL1       -0.0794
     53 O         -13.0340   10.1840   -6.1210 O.3     1  UNL1       -0.5052
     54 O         -16.7990   11.2610   -3.5430 O.3     1  UNL1       -0.5059
@<TRIPOS>BOND
     1    17    53    1
     2    53    29    1
     3    52    30    1
     4    29    30   ar
     5    29    28   ar
     6     4    28    1
     7    30    31   ar
     8    28    27   ar
     9    12    45    1
    10     5    35    1
    11    31    32   ar
    12    31    45    1
    13    27    32   ar
    14    27    54    1
    15    32    33    1
    16    54     3    1
    17    45    24    1
    18    45    44    1
    19    22    41    1
    20    35    33   am
    21    35    36    1
    22    11    43    1
    23     6    36    1
    24     2    39    1
    25    33    34    2
    26    36    19    1
    27    36    37    1
    28    44    43    1
    29    44    46    2
    30    48    14    1
    31    48    47    1
    32     9    41    1
    33    41    40    1
    34    41    42    1
    35    43    47    1
    36    43    42    1
    37     8    40    1
    38    39    40    1
    39    39    38    2
    40    40    21    1
    41    47    49    1
    42    47    13    1
    43    42    23    1
    44    42    10    1
    45    49    50    1
    46    37    38    1
    47    37     7    1
    48    37    20    1
    49    38     1    1
    50    18    51    1
    51    25    50    1
    52    50    51    1
    53    50    15    1
    54    51    26    1
    55    51    16    1
