@<TRIPOS>MOLECULE
10.95553
 54 55 0 0 0
SMALL
GASTEIGER

@<TRIPOS>ATOM
      1 H         -15.1430    3.8720   -5.8210 H       1  UNL1        0.0569
      2 H         -13.2620    1.4960   -6.3070 H       1  UNL1        0.0569
      3 H         -18.6960   -1.6540   -4.6100 H       1  UNL1        0.2922
      4 H         -18.8870   -2.8890   -1.3690 H       1  UNL1        0.0691
      5 H         -16.8650    1.5990   -3.6280 H       1  UNL1        0.1490
      6 H         -17.4710    2.8560   -5.4080 H       1  UNL1        0.0465
      7 H         -16.2730    2.4330   -7.6170 H       1  UNL1        0.0322
      8 H         -12.1530    4.0640   -6.1100 H       1  UNL1        0.0307
      9 H         -13.6870    4.7050   -4.1750 H       1  UNL1        0.0268
     10 H         -12.8140    3.7680   -1.9200 H       1  UNL1        0.0274
     11 H         -14.6660    2.1680   -3.6880 H       1  UNL1        0.0427
     12 H         -14.3280    0.0160   -3.8280 H       1  UNL1        0.0391
     13 H         -15.1090    3.3200   -0.8930 H       1  UNL1        0.0914
     14 H         -17.0840    2.6100   -1.2050 H       1  UNL1        0.2125
     15 H         -15.8290    5.5410   -0.8680 H       1  UNL1        0.0558
     16 H         -17.1050    7.3520   -2.0230 H       1  UNL1        0.0252
     17 H         -16.1500   -2.9290    0.8450 H       1  UNL1        0.2922
     18 H         -17.0510    6.4180   -3.5370 H       1  UNL1        0.0252
     19 H         -17.9530    1.3790   -6.2540 H       1  UNL1        0.0465
     20 H         -15.5340    0.9930   -6.9200 H       1  UNL1        0.0322
     21 H         -11.6050    2.6850   -5.1830 H       1  UNL1        0.0307
     22 H         -11.9720    4.7440   -3.8480 H       1  UNL1        0.0268
     23 H         -12.1230    2.4380   -2.8210 H       1  UNL1        0.0274
     24 H         -13.4930   -0.8600   -2.6060 H       1  UNL1        0.0391
     25 H         -17.3450    4.9100   -1.5680 H       1  UNL1        0.0558
     26 H         -15.5580    7.0420   -2.8480 H       1  UNL1        0.0252
     27 C         -17.9130   -1.6760   -2.8570 C.ar    1  UNL1        0.1328
     28 C         -17.9930   -2.3350   -1.6400 C.ar    1  UNL1        0.0235
     29 C         -16.8940   -2.3160   -0.7970 C.ar    1  UNL1        0.1389
     30 C         -15.7160   -1.6380   -1.1530 C.ar    1  UNL1        0.0868
     31 C         -15.6310   -0.9070   -2.3600 C.ar    1  UNL1       -0.0028
     32 C         -16.7670   -0.9350   -3.2070 C.ar    1  UNL1        0.0832
     33 C         -16.8210   -0.2700   -4.5270 C.2     1  UNL1        0.2479
     34 O         -16.9730   -0.9640   -5.5260 O.2     1  UNL1       -0.2701
     35 N         -16.8570    1.1000   -4.5190 N.am    1  UNL1       -0.3109
     36 C         -17.1250    1.8660   -5.7250 C.3     1  UNL1        0.0153
     37 C         -15.9260    1.9880   -6.6770 C.3     1  UNL1       -0.0191
     38 C         -14.8380    2.8730   -6.1270 C.2     1  UNL1       -0.0865
     39 C         -13.5600    2.4890   -5.9750 C.2     1  UNL1       -0.0879
     40 C         -12.4750    3.3300   -5.3610 C.3     1  UNL1       -0.0347
     41 C         -12.8100    4.0640   -4.0510 C.3     1  UNL1       -0.0488
     42 C         -12.9560    3.1530   -2.8190 C.3     1  UNL1       -0.0385
     43 C         -14.2970    2.4080   -2.6990 C.3     1  UNL1        0.0685
     44 C         -14.0830    1.0910   -1.9790 C.2     1  UNL1        0.1455
     45 C         -14.3530   -0.1950   -2.7540 C.3     1  UNL1        0.0338
     46 O         -13.7060    1.0850   -0.8050 O.2     1  UNL1       -0.2966
     47 C         -15.3880    3.1740   -1.9450 C.3     1  UNL1        0.1656
     48 O         -16.5900    2.4050   -2.0190 O.3     1  UNL1       -0.3663
     49 O         -15.6110    4.4180   -2.5920 O.3     1  UNL1       -0.3511
     50 C         -16.3630    5.3330   -1.8010 C.3     1  UNL1        0.0478
     51 C         -16.5330    6.6140   -2.5930 C.3     1  UNL1       -0.0415
     52 CL        -14.3610   -1.8170   -0.0830 Cl      1  UNL1       -0.0794
     53 O         -17.0030   -3.0140    0.3770 O.3     1  UNL1       -0.5052
     54 O         -18.9950   -1.8090   -3.6890 O.3     1  UNL1       -0.5059
@<TRIPOS>BOND
     1     7    37    1
     2    20    37    1
     3    37    38    1
     4    37    36    1
     5     2    39    1
     6    19    36    1
     7    38    39    2
     8    38     1    1
     9     8    40    1
    10    39    40    1
    11    36     6    1
    12    36    35    1
    13    34    33    2
    14    40    21    1
    15    40    41    1
    16     3    54    1
    17    33    35   am
    18    33    32    1
    19    35     5    1
    20     9    41    1
    21    41    22    1
    22    41    42    1
    23    12    45    1
    24    54    27    1
    25    11    43    1
    26    18    51    1
    27    32    27   ar
    28    32    31   ar
    29    27    28   ar
    30    26    51    1
    31    23    42    1
    32    42    43    1
    33    42    10    1
    34    45    24    1
    35    45    31    1
    36    45    44    1
    37    43    44    1
    38    43    47    1
    39    51    16    1
    40    51    50    1
    41    49    47    1
    42    49    50    1
    43    31    30   ar
    44    48    47    1
    45    48    14    1
    46    44    46    2
    47    47    13    1
    48    50    25    1
    49    50    15    1
    50    28     4    1
    51    28    29   ar
    52    30    29   ar
    53    30    52    1
    54    29    53    1
    55    53    17    1
