@<TRIPOS>MOLECULE
6.33701
 54 55 0 0 0
SMALL
GASTEIGER

@<TRIPOS>ATOM
      1 H         -18.2420   -1.9050    2.5680 H       1  UNL1        0.0569
      2 H         -18.9060   -1.8830   -0.4320 H       1  UNL1        0.0569
      3 H         -19.8340    4.7320    1.0930 H       1  UNL1        0.2922
      4 H         -18.7990    6.0830   -1.9590 H       1  UNL1        0.0691
      5 H         -18.3600    0.9760    0.3620 H       1  UNL1        0.1490
      6 H         -20.2170    1.3520    2.5690 H       1  UNL1        0.0465
      7 H         -20.4380   -0.5270    0.8600 H       1  UNL1        0.0322
      8 H         -17.5920   -3.9850   -0.2540 H       1  UNL1        0.0307
      9 H         -16.4380   -1.9990   -1.3240 H       1  UNL1        0.0268
     10 H         -14.5430   -1.9880    1.0200 H       1  UNL1        0.0274
     11 H         -14.4470   -0.6340   -1.3410 H       1  UNL1        0.0427
     12 H         -16.0350    1.9240    1.2360 H       1  UNL1        0.0391
     13 H         -12.7200   -0.6250    0.3780 H       1  UNL1        0.0914
     14 H         -12.8770    0.5360    2.1500 H       1  UNL1        0.2125
     15 H         -10.8830    0.7020   -0.2070 H       1  UNL1        0.0558
     16 H         -10.0160    2.9560   -0.8330 H       1  UNL1        0.0252
     17 H         -15.8300    5.1350   -3.6030 H       1  UNL1        0.2922
     18 H         -11.6840    3.5510   -1.0020 H       1  UNL1        0.0252
     19 H         -18.6800    0.6590    3.0950 H       1  UNL1        0.0465
     20 H         -20.5750   -1.0080    2.5490 H       1  UNL1        0.0322
     21 H         -16.9120   -3.5150    1.2990 H       1  UNL1        0.0307
     22 H         -15.3600   -3.2330   -0.7070 H       1  UNL1        0.0268
     23 H         -15.9860   -1.0240    1.2560 H       1  UNL1        0.0274
     24 H         -14.7520    2.5230    0.2200 H       1  UNL1        0.0391
     25 H         -11.5070    1.9550    0.9020 H       1  UNL1        0.0558
     26 H         -11.0830    2.3210   -2.1080 H       1  UNL1        0.0252
     27 C         -18.6360    4.6070   -0.4010 C.ar    1  UNL1        0.1328
     28 C         -18.2140    5.2670   -1.5470 C.ar    1  UNL1        0.0235
     29 C         -17.0330    4.8700   -2.1530 C.ar    1  UNL1        0.1389
     30 C         -16.2530    3.8380   -1.6080 C.ar    1  UNL1        0.0868
     31 C         -16.6590    3.1630   -0.4360 C.ar    1  UNL1       -0.0028
     32 C         -17.9000    3.5290    0.1310 C.ar    1  UNL1        0.0832
     33 C         -18.5020    2.8370    1.2930 C.2     1  UNL1        0.2479
     34 O         -18.9250    3.5180    2.2230 O.2     1  UNL1       -0.2701
     35 N         -18.6680    1.4740    1.1960 N.am    1  UNL1       -0.3109
     36 C         -19.3640    0.7450    2.2430 C.3     1  UNL1        0.0153
     37 C         -19.8750   -0.6260    1.7960 C.3     1  UNL1       -0.0191
     38 C         -18.7660   -1.6300    1.6550 C.2     1  UNL1       -0.0865
     39 C         -18.3910   -2.1680    0.4850 C.2     1  UNL1       -0.0879
     40 C         -17.2430   -3.1250    0.3300 C.3     1  UNL1       -0.0347
     41 C         -16.0740   -2.4590   -0.3980 C.3     1  UNL1       -0.0488
     42 C         -15.3290   -1.4400    0.4840 C.3     1  UNL1       -0.0385
     43 C         -14.7180   -0.2850   -0.3340 C.3     1  UNL1        0.0685
     44 C         -15.8030    0.7820   -0.5510 C.2     1  UNL1        0.1455
     45 C         -15.7610    2.1090    0.1930 C.3     1  UNL1        0.0338
     46 O         -16.7930    0.5070   -1.2480 O.2     1  UNL1       -0.2966
     47 C         -13.4230    0.2170    0.3180 C.3     1  UNL1        0.1656
     48 O         -13.6870    0.6780    1.6320 O.3     1  UNL1       -0.3663
     49 O         -12.8610    1.2360   -0.4940 O.3     1  UNL1       -0.3511
     50 C         -11.5300    1.5830   -0.1280 C.3     1  UNL1        0.0478
     51 C         -11.0430    2.6660   -1.0700 C.3     1  UNL1       -0.0415
     52 CL        -14.7730    3.4380   -2.4230 Cl      1  UNL1       -0.0794
     53 O         -16.6590    5.5410   -3.2870 O.3     1  UNL1       -0.5052
     54 O         -19.7930    5.0710    0.1720 O.3     1  UNL1       -0.5059
@<TRIPOS>BOND
     1    17    53    1
     2    53    29    1
     3    52    30    1
     4    29    30   ar
     5    29    28   ar
     6    26    51    1
     7     4    28    1
     8    30    31   ar
     9    28    27   ar
    10    11    43    1
    11     9    41    1
    12    46    44    2
    13    51    18    1
    14    51    16    1
    15    51    50    1
    16    22    41    1
    17    44    43    1
    18    44    45    1
    19    49    50    1
    20    49    47    1
    21    31    32   ar
    22    31    45    1
    23     2    39    1
    24    27    32   ar
    25    27    54    1
    26    41    40    1
    27    41    42    1
    28    43    47    1
    29    43    42    1
    30     8    40    1
    31    15    50    1
    32    50    25    1
    33    32    33    1
    34    54     3    1
    35    45    24    1
    36    45    12    1
    37    47    13    1
    38    47    48    1
    39    40    39    1
    40    40    21    1
    41     5    35    1
    42    42    10    1
    43    42    23    1
    44    39    38    2
    45     7    37    1
    46    35    33   am
    47    35    36    1
    48    33    34    2
    49    48    14    1
    50    38    37    1
    51    38     1    1
    52    37    36    1
    53    37    20    1
    54    36     6    1
    55    36    19    1
