@<TRIPOS>MOLECULE
11.57366
 54 55 0 0 0
SMALL
GASTEIGER

@<TRIPOS>ATOM
      1 H         -14.1390   -1.7750   -8.0810 H       1  UNL1        0.0569
      2 H         -12.6370   -3.6370   -6.1610 H       1  UNL1        0.0569
      3 H          -8.9950   -2.7600   -3.0170 H       1  UNL1        0.2922
      4 H          -9.4240   -1.0990    0.0180 H       1  UNL1        0.0691
      5 H         -11.5280   -0.3080   -5.0550 H       1  UNL1        0.1490
      6 H         -10.5590   -2.5930   -6.7530 H       1  UNL1        0.0465
      7 H         -11.7140   -1.3260   -8.6210 H       1  UNL1        0.0322
      8 H         -14.4700   -5.1110   -6.8210 H       1  UNL1        0.0307
      9 H         -16.6350   -4.1690   -5.8230 H       1  UNL1        0.0268
     10 H         -14.9610   -5.5620   -4.5120 H       1  UNL1        0.0274
     11 H         -13.2220   -3.8050   -3.9940 H       1  UNL1        0.0427
     12 H         -13.4460   -1.4260   -4.4150 H       1  UNL1        0.0391
     13 H         -14.7250   -4.6970   -1.4710 H       1  UNL1        0.0914
     14 H         -12.8110   -4.3690   -0.5320 H       1  UNL1        0.2125
     15 H         -14.4710   -6.9580   -0.9550 H       1  UNL1        0.0558
     16 H         -13.1210   -9.0480   -1.1710 H       1  UNL1        0.0252
     17 H         -12.5070    0.2320    1.0880 H       1  UNL1        0.2922
     18 H         -12.1640   -8.2920   -2.4680 H       1  UNL1        0.0252
     19 H         -10.0420   -0.9160   -6.9330 H       1  UNL1        0.0465
     20 H         -12.3820   -0.2150   -7.4320 H       1  UNL1        0.0322
     21 H         -15.2970   -3.8180   -7.6580 H       1  UNL1        0.0307
     22 H         -15.7620   -2.7230   -5.3650 H       1  UNL1        0.0268
     23 H         -16.1500   -4.6180   -3.6360 H       1  UNL1        0.0274
     24 H         -14.2910   -0.3950   -3.3340 H       1  UNL1        0.0391
     25 H         -12.7350   -6.6300   -0.6940 H       1  UNL1        0.0558
     26 H         -13.8740   -8.6180   -2.7250 H       1  UNL1        0.0252
     27 C         -10.1130   -1.6230   -1.9520 C.ar    1  UNL1        0.1328
     28 C         -10.2590   -1.0990   -0.6760 C.ar    1  UNL1        0.0235
     29 C         -11.4900   -0.5850   -0.3000 C.ar    1  UNL1        0.1389
     30 C         -12.5860   -0.6110   -1.1780 C.ar    1  UNL1        0.0868
     31 C         -12.4620   -1.1430   -2.4810 C.ar    1  UNL1       -0.0028
     32 C         -11.1820   -1.6090   -2.8700 C.ar    1  UNL1        0.0832
     33 C         -10.8700   -2.0910   -4.2370 C.2     1  UNL1        0.2479
     34 O         -10.2650   -3.1480   -4.3730 O.2     1  UNL1       -0.2701
     35 N         -11.1870   -1.2360   -5.2670 N.am    1  UNL1       -0.3109
     36 C         -10.8880   -1.5530   -6.6530 C.3     1  UNL1        0.0153
     37 C         -12.0690   -1.2560   -7.5850 C.3     1  UNL1       -0.0191
     38 C         -13.3010   -2.1200   -7.4750 C.2     1  UNL1       -0.0865
     39 C         -13.4600   -3.2380   -6.7490 C.2     1  UNL1       -0.0879
     40 C         -14.7260   -4.0480   -6.7480 C.3     1  UNL1       -0.0347
     41 C         -15.6390   -3.7970   -5.5430 C.3     1  UNL1       -0.0488
     42 C         -15.2450   -4.5350   -4.2540 C.3     1  UNL1       -0.0385
     43 C         -14.1390   -3.8770   -3.4060 C.3     1  UNL1        0.0685
     44 C         -14.5670   -2.4850   -2.9660 C.2     1  UNL1        0.1455
     45 C         -13.6850   -1.3090   -3.3590 C.3     1  UNL1        0.0338
     46 O         -15.6090   -2.3130   -2.3270 O.2     1  UNL1       -0.2966
     47 C         -13.8500   -4.6900   -2.1340 C.3     1  UNL1        0.1656
     48 O         -12.7520   -4.0920   -1.4610 O.3     1  UNL1       -0.3663
     49 O         -13.5000   -6.0150   -2.5200 O.3     1  UNL1       -0.3511
     50 C         -13.4850   -6.9320   -1.4320 C.3     1  UNL1        0.0478
     51 C         -13.1420   -8.3060   -1.9740 C.3     1  UNL1       -0.0415
     52 CL        -14.0820    0.0500   -0.5980 Cl      1  UNL1       -0.0794
     53 O         -11.5880   -0.0720    0.9670 O.3     1  UNL1       -0.5052
     54 O          -8.8830   -2.1480   -2.2550 O.3     1  UNL1       -0.5059
@<TRIPOS>BOND
     1     7    37    1
     2     1    38    1
     3    21    40    1
     4    37    38    1
     5    37    20    1
     6    37    36    1
     7    38    39    2
     8    19    36    1
     9     8    40    1
    10     6    36    1
    11    39    40    1
    12    39     2    1
    13    40    41    1
    14    36    35    1
    15     9    41    1
    16    41    22    1
    17    41    42    1
    18    35     5    1
    19    35    33   am
    20    10    42    1
    21    12    45    1
    22    34    33    2
    23    42    23    1
    24    42    43    1
    25    33    32    1
    26    11    43    1
    27    43    44    1
    28    43    47    1
    29    45    24    1
    30    45    44    1
    31    45    31    1
    32     3    54    1
    33    44    46    2
    34    32    31   ar
    35    32    27   ar
    36    26    51    1
    37    49    47    1
    38    49    50    1
    39    31    30   ar
    40    18    51    1
    41    54    27    1
    42    47    13    1
    43    47    48    1
    44    51    50    1
    45    51    16    1
    46    27    28   ar
    47    48    14    1
    48    50    15    1
    49    50    25    1
    50    30    52    1
    51    30    29   ar
    52    28    29   ar
    53    28     4    1
    54    29    53    1
    55    53    17    1
