@<TRIPOS>MOLECULE
17.53959
 54 55 0 0 0
SMALL
GASTEIGER

@<TRIPOS>ATOM
      1 H         -12.2790    1.2050   -0.7080 H       1  UNL1        0.0569
      2 H         -11.4900    4.1390   -1.1710 H       1  UNL1        0.0569
      3 H         -17.7120    0.5430    1.2110 H       1  UNL1        0.2922
      4 H         -18.7840   -2.1560   -0.6930 H       1  UNL1        0.0691
      5 H         -14.6010    1.5090   -1.1150 H       1  UNL1        0.1490
      6 H         -15.0290    3.3620    1.1800 H       1  UNL1        0.0465
      7 H         -13.0110    1.9770    1.4180 H       1  UNL1        0.0322
      8 H          -9.9080    2.2320   -2.4370 H       1  UNL1        0.0307
      9 H         -11.8450    0.6530   -2.7980 H       1  UNL1        0.0268
     10 H         -12.9140    2.5340   -4.9130 H       1  UNL1        0.0274
     11 H         -14.3120    0.5120   -3.0690 H       1  UNL1        0.0427
     12 H         -16.0300    2.7560   -2.6880 H       1  UNL1        0.0391
     13 H         -13.9400    0.3080   -6.1100 H       1  UNL1        0.0914
     14 H         -15.1230   -1.4260   -5.8460 H       1  UNL1        0.2125
     15 H         -12.1400   -0.9920   -6.8230 H       1  UNL1        0.0558
     16 H         -10.5280   -2.8330   -6.3170 H       1  UNL1        0.0252
     17 H         -18.9500   -2.0870   -4.2080 H       1  UNL1        0.2922
     18 H         -10.9870   -2.7570   -4.5990 H       1  UNL1        0.0252
     19 H         -14.4800    3.9930   -0.3750 H       1  UNL1        0.0465
     20 H         -12.5360    3.6420    1.1030 H       1  UNL1        0.0322
     21 H         -10.7860    3.4790   -3.3110 H       1  UNL1        0.0307
     22 H         -11.1100    1.2240   -4.2860 H       1  UNL1        0.0268
     23 H         -13.4400    2.8540   -3.2810 H       1  UNL1        0.0274
     24 H         -17.3300    2.5510   -3.8200 H       1  UNL1        0.0391
     25 H         -12.9710   -2.3830   -6.0710 H       1  UNL1        0.0558
     26 H         -10.1670   -1.3890   -5.3410 H       1  UNL1        0.0252
     27 C         -17.7050   -0.3020   -0.5140 C.ar    1  UNL1        0.1328
     28 C         -18.3050   -1.3340   -1.2180 C.ar    1  UNL1        0.0235
     29 C         -18.3380   -1.2690   -2.6020 C.ar    1  UNL1        0.1389
     30 C         -17.7590   -0.1910   -3.2920 C.ar    1  UNL1        0.0868
     31 C         -17.0660    0.8310   -2.6020 C.ar    1  UNL1       -0.0028
     32 C         -17.0620    0.7580   -1.1840 C.ar    1  UNL1        0.0832
     33 C         -16.4820    1.8080   -0.3140 C.2     1  UNL1        0.2479
     34 O         -17.1980    2.3310    0.5320 O.2     1  UNL1       -0.2701
     35 N         -15.1400    2.0500   -0.4540 N.am    1  UNL1       -0.3109
     36 C         -14.4620    3.1110    0.2770 C.3     1  UNL1        0.0153
     37 C         -13.0160    2.7650    0.6540 C.3     1  UNL1       -0.0191
     38 C         -12.2310    2.2770   -0.5300 C.2     1  UNL1       -0.0865
     39 C         -11.5500    3.0700   -1.3720 C.2     1  UNL1       -0.0879
     40 C         -10.9140    2.6070   -2.6580 C.3     1  UNL1       -0.0347
     41 C         -11.7120    1.5410   -3.4260 C.3     1  UNL1       -0.0488
     42 C         -13.0680    2.0560   -3.9370 C.3     1  UNL1       -0.0385
     43 C         -14.1750    0.9860   -4.0480 C.3     1  UNL1        0.0685
     44 C         -15.4650    1.7060   -4.4310 C.2     1  UNL1        0.1455
     45 C         -16.4920    2.0200   -3.3490 C.3     1  UNL1        0.0338
     46 O         -15.6200    2.1430   -5.5770 O.2     1  UNL1       -0.2966
     47 C         -13.9220   -0.1090   -5.0950 C.3     1  UNL1        0.1656
     48 O         -14.9500   -1.0810   -4.9550 O.3     1  UNL1       -0.3663
     49 O         -12.6750   -0.7410   -4.8390 O.3     1  UNL1       -0.3511
     50 C         -12.2440   -1.5810   -5.9050 C.3     1  UNL1        0.0478
     51 C         -10.9030   -2.1780   -5.5250 C.3     1  UNL1       -0.0415
     52 CL        -18.0250   -0.1250   -5.0080 Cl      1  UNL1       -0.0794
     53 O         -18.9960   -2.2790   -3.2530 O.3     1  UNL1       -0.5052
     54 O         -17.8000   -0.3670    0.8530 O.3     1  UNL1       -0.5059
@<TRIPOS>BOND
     1    15    50    1
     2    16    51    1
     3    13    47    1
     4    25    50    1
     5    50    51    1
     6    50    49    1
     7    14    48    1
     8    46    44    2
     9    51    26    1
    10    51    18    1
    11    47    48    1
    12    47    49    1
    13    47    43    1
    14    52    30    1
    15    10    42    1
    16    44    43    1
    17    44    45    1
    18    22    41    1
    19    17    53    1
    20    43    42    1
    21    43    11    1
    22    42    41    1
    23    42    23    1
    24    24    45    1
    25    41     9    1
    26    41    40    1
    27    45    12    1
    28    45    31    1
    29    21    40    1
    30    30    29   ar
    31    30    31   ar
    32    53    29    1
    33    40     8    1
    34    40    39    1
    35    29    28   ar
    36    31    32   ar
    37    39     2    1
    38    39    38    2
    39    28     4    1
    40    28    27   ar
    41    32    27   ar
    42    32    33    1
    43     5    35    1
    44     1    38    1
    45    38    37    1
    46    27    54    1
    47    35    33   am
    48    35    36    1
    49    19    36    1
    50    33    34    2
    51    36    37    1
    52    36     6    1
    53    37    20    1
    54    37     7    1
    55    54     3    1
