@<TRIPOS>MOLECULE
13.18325
 54 55 0 0 0
SMALL
GASTEIGER

@<TRIPOS>ATOM
      1 H         -14.4560   -1.9350   -6.5550 H       1  UNL1        0.0569
      2 H         -13.7610   -4.9110   -6.8880 H       1  UNL1        0.0569
      3 H          -9.6070   -4.4050   -2.7550 H       1  UNL1        0.2922
      4 H         -10.8880   -6.8510   -0.6380 H       1  UNL1        0.0691
      5 H         -13.1790   -3.1760   -4.2270 H       1  UNL1        0.1490
      6 H         -10.7950   -1.8040   -5.3470 H       1  UNL1        0.0465
      7 H         -11.7990   -3.5130   -6.8290 H       1  UNL1        0.0322
      8 H         -16.0400   -5.3770   -6.6800 H       1  UNL1        0.0307
      9 H         -17.5680   -3.9230   -5.3640 H       1  UNL1        0.0268
     10 H         -14.8530   -4.6630   -4.2110 H       1  UNL1        0.0274
     11 H         -15.8550   -4.3080   -1.9530 H       1  UNL1        0.0427
     12 H         -13.3260   -1.6180   -1.7240 H       1  UNL1        0.0391
     13 H         -17.6040   -2.1540   -3.2470 H       1  UNL1        0.0914
     14 H         -18.1200   -1.7560   -1.1940 H       1  UNL1        0.2125
     15 H         -19.8070   -2.8170   -3.6180 H       1  UNL1        0.0558
     16 H         -21.7120   -4.3010   -2.9820 H       1  UNL1        0.0252
     17 H         -13.8400   -6.4520    1.2380 H       1  UNL1        0.2922
     18 H         -20.5980   -5.3220   -2.0420 H       1  UNL1        0.0252
     19 H         -12.3530   -0.9800   -5.1780 H       1  UNL1        0.0465
     20 H         -12.0810   -1.8990   -7.4850 H       1  UNL1        0.0322
     21 H         -16.3890   -3.8620   -7.4970 H       1  UNL1        0.0307
     22 H         -16.3570   -2.6630   -5.3050 H       1  UNL1        0.0268
     23 H         -16.4220   -5.3800   -3.9420 H       1  UNL1        0.0274
     24 H         -14.5530   -2.1930   -0.6550 H       1  UNL1        0.0391
     25 H         -19.9820   -2.9090   -1.8440 H       1  UNL1        0.0558
     26 H         -20.4270   -5.2310   -3.7910 H       1  UNL1        0.0252
     27 C         -11.1370   -5.0480   -1.7860 C.ar    1  UNL1        0.1328
     28 C         -11.5180   -5.9900   -0.8420 C.ar    1  UNL1        0.0235
     29 C         -12.6930   -5.7940   -0.1360 C.ar    1  UNL1        0.1389
     30 C         -13.4970   -4.6660   -0.3650 C.ar    1  UNL1        0.0868
     31 C         -13.1570   -3.7140   -1.3570 C.ar    1  UNL1       -0.0028
     32 C         -11.9540   -3.9350   -2.0790 C.ar    1  UNL1        0.0832
     33 C         -11.4290   -3.0240   -3.1290 C.2     1  UNL1        0.2479
     34 O         -10.2660   -2.6420   -3.0470 O.2     1  UNL1       -0.2701
     35 N         -12.2490   -2.7860   -4.1960 N.am    1  UNL1       -0.3109
     36 C         -11.8790   -1.9560   -5.3320 C.3     1  UNL1        0.0153
     37 C         -12.3400   -2.5740   -6.6610 C.3     1  UNL1       -0.0191
     38 C         -13.8290   -2.8160   -6.6800 C.2     1  UNL1       -0.0865
     39 C         -14.3930   -4.0330   -6.7660 C.2     1  UNL1       -0.0879
     40 C         -15.8710   -4.2940   -6.6330 C.3     1  UNL1       -0.0347
     41 C         -16.4850   -3.7490   -5.3340 C.3     1  UNL1       -0.0488
     42 C         -15.9120   -4.4160   -4.0710 C.3     1  UNL1       -0.0385
     43 C         -16.0470   -3.6040   -2.7660 C.3     1  UNL1        0.0685
     44 C         -14.9910   -2.5090   -2.7100 C.2     1  UNL1        0.1455
     45 C         -14.0010   -2.4690   -1.5590 C.3     1  UNL1        0.0338
     46 O         -14.9580   -1.6270   -3.5740 O.2     1  UNL1       -0.2966
     47 C         -17.4170   -2.9660   -2.5330 C.3     1  UNL1        0.1656
     48 O         -17.4290   -2.4370   -1.2130 O.3     1  UNL1       -0.3663
     49 O         -18.4030   -3.9850   -2.6460 O.3     1  UNL1       -0.3511
     50 C         -19.7280   -3.4750   -2.7460 C.3     1  UNL1        0.0478
     51 C         -20.6780   -4.6460   -2.9000 C.3     1  UNL1       -0.0415
     52 CL        -14.8880   -4.4770    0.6580 Cl      1  UNL1       -0.0794
     53 O         -13.0120   -6.7350    0.8060 O.3     1  UNL1       -0.5052
     54 O          -9.9250   -5.2620   -2.3920 O.3     1  UNL1       -0.5059
@<TRIPOS>BOND
     1    21    40    1
     2    20    37    1
     3     2    39    1
     4     7    37    1
     5    39    38    2
     6    39    40    1
     7    38    37    1
     8    38     1    1
     9     8    40    1
    10    37    36    1
    11    40    41    1
    12     9    41    1
    13     6    36    1
    14    41    22    1
    15    41    42    1
    16    36    19    1
    17    36    35    1
    18     5    35    1
    19    10    42    1
    20    35    33   am
    21    42    23    1
    22    42    43    1
    23    26    51    1
    24    15    50    1
    25    46    44    2
    26    13    47    1
    27    33    34    2
    28    33    32    1
    29    16    51    1
    30    51    50    1
    31    51    18    1
    32    43    44    1
    33    43    47    1
    34    43    11    1
    35     3    54    1
    36    50    49    1
    37    50    25    1
    38    44    45    1
    39    49    47    1
    40    47    48    1
    41    54    27    1
    42    32    27   ar
    43    32    31   ar
    44    27    28   ar
    45    12    45    1
    46    45    31    1
    47    45    24    1
    48    31    30   ar
    49    48    14    1
    50    28     4    1
    51    28    29   ar
    52    30    29   ar
    53    30    52    1
    54    29    53    1
    55    53    17    1
