@<TRIPOS>MOLECULE
9.18785
 54 55 0 0 0
SMALL
GASTEIGER

@<TRIPOS>ATOM
      1 H         -14.7500    1.8770   -8.4620 H       1  UNL1        0.0569
      2 H         -11.7390    2.0430   -9.0190 H       1  UNL1        0.0569
      3 H          -9.0220   -2.8180   -7.6100 H       1  UNL1        0.2922
      4 H          -8.4980   -3.3990   -4.1970 H       1  UNL1        0.0691
      5 H         -12.3730   -0.6010   -7.0060 H       1  UNL1        0.1490
      6 H         -12.4440   -1.6650   -9.4600 H       1  UNL1        0.0465
      7 H         -14.3620   -0.4850   -8.4490 H       1  UNL1        0.0322
      8 H         -13.8320    4.0740   -7.9380 H       1  UNL1        0.0307
      9 H         -11.5010    5.2080   -7.3450 H       1  UNL1        0.0268
     10 H         -12.8800    4.8840   -5.5400 H       1  UNL1        0.0274
     11 H         -13.9260    2.7120   -5.8750 H       1  UNL1        0.0427
     12 H         -10.5030    1.5490   -6.6500 H       1  UNL1        0.0391
     13 H         -12.4470    2.9750   -3.2060 H       1  UNL1        0.0914
     14 H         -14.4650    1.2630   -4.0830 H       1  UNL1        0.2125
     15 H         -13.4650    4.4670   -1.7460 H       1  UNL1        0.0558
     16 H         -15.4750    5.8120   -1.1290 H       1  UNL1        0.0252
     17 H          -9.2680   -1.0700   -1.6680 H       1  UNL1        0.2922
     18 H         -16.2370    5.3800   -2.6790 H       1  UNL1        0.0252
     19 H         -11.6360   -0.1420   -9.8260 H       1  UNL1        0.0465
     20 H         -14.1490   -0.0350  -10.1360 H       1  UNL1        0.0322
     21 H         -12.6190    4.4220   -9.1630 H       1  UNL1        0.0307
     22 H         -10.8580    3.5940   -7.3670 H       1  UNL1        0.0268
     23 H         -11.3520    4.1630   -5.1070 H       1  UNL1        0.0274
     24 H         -10.3390    2.1040   -5.0080 H       1  UNL1        0.0391
     25 H         -14.9390    3.4580   -1.7550 H       1  UNL1        0.0558
     26 H         -14.7860    6.3760   -2.6700 H       1  UNL1        0.0252
     27 C          -9.3260   -2.2320   -5.8060 C.ar    1  UNL1        0.1328
     28 C          -8.9910   -2.4740   -4.4800 C.ar    1  UNL1        0.0235
     29 C          -9.2990   -1.5190   -3.5210 C.ar    1  UNL1        0.1389
     30 C          -9.9070   -0.3060   -3.8780 C.ar    1  UNL1        0.0868
     31 C         -10.2350   -0.0310   -5.2220 C.ar    1  UNL1       -0.0028
     32 C          -9.9890   -1.0480   -6.1780 C.ar    1  UNL1        0.0832
     33 C         -10.4180   -0.9490   -7.5960 C.2     1  UNL1        0.2479
     34 O          -9.6140   -1.2220   -8.4810 O.2     1  UNL1       -0.2701
     35 N         -11.7420   -0.6650   -7.8070 N.am    1  UNL1       -0.3109
     36 C         -12.3330   -0.6250   -9.1330 C.3     1  UNL1        0.0153
     37 C         -13.7060    0.0620   -9.1380 C.3     1  UNL1       -0.0191
     38 C         -13.7600    1.5200   -8.7430 C.2     1  UNL1       -0.0865
     39 C         -12.7270    2.3740   -8.7040 C.2     1  UNL1       -0.0879
     40 C         -12.8230    3.8110   -8.2750 C.3     1  UNL1       -0.0347
     41 C         -11.7840    4.1550   -7.2050 C.3     1  UNL1       -0.0488
     42 C         -12.2340    4.0190   -5.7440 C.3     1  UNL1       -0.0385
     43 C         -12.9910    2.7520   -5.2990 C.3     1  UNL1        0.0685
     44 C         -12.3070    1.4090   -5.5180 C.2     1  UNL1        0.1455
     45 C         -10.7970    1.3230   -5.6210 C.3     1  UNL1        0.0338
     46 O         -13.0050    0.3880   -5.6020 O.2     1  UNL1       -0.2966
     47 C         -13.3600    2.8490   -3.8010 C.3     1  UNL1        0.1656
     48 O         -14.0340    1.6960   -3.3240 O.3     1  UNL1       -0.3663
     49 O         -14.2020    3.9860   -3.6230 O.3     1  UNL1       -0.3511
     50 C         -14.4230    4.2890   -2.2470 C.3     1  UNL1        0.0478
     51 C         -15.2800    5.5370   -2.1690 C.3     1  UNL1       -0.0415
     52 CL        -10.2270    0.8400   -2.6150 Cl      1  UNL1       -0.0794
     53 O          -8.9660   -1.8110   -2.2250 O.3     1  UNL1       -0.5052
     54 O          -8.9740   -3.2030   -6.7070 O.3     1  UNL1       -0.5059
@<TRIPOS>BOND
     1    20    37    1
     2    19    36    1
     3     6    36    1
     4    21    40    1
     5    37    36    1
     6    37    38    1
     7    37     7    1
     8    36    35    1
     9     2    39    1
    10    38    39    2
    11    38     1    1
    12    39    40    1
    13    34    33    2
    14    40     8    1
    15    40    41    1
    16    35    33   am
    17    35     5    1
    18     3    54    1
    19    33    32    1
    20    22    41    1
    21     9    41    1
    22    41    42    1
    23    54    27    1
    24    12    45    1
    25    32    27   ar
    26    32    31   ar
    27    11    43    1
    28    27    28   ar
    29    42    10    1
    30    42    43    1
    31    42    23    1
    32    45    44    1
    33    45    31    1
    34    45    24    1
    35    46    44    2
    36    44    43    1
    37    43    47    1
    38    31    30   ar
    39    28     4    1
    40    28    29   ar
    41    14    48    1
    42    30    29   ar
    43    30    52    1
    44    47    49    1
    45    47    48    1
    46    47    13    1
    47    49    50    1
    48    29    53    1
    49    18    51    1
    50    26    51    1
    51    50    51    1
    52    50    25    1
    53    50    15    1
    54    53    17    1
    55    51    16    1
