@<TRIPOS>MOLECULE
8.44748
 54 55 0 0 0
SMALL
GASTEIGER

@<TRIPOS>ATOM
      1 H         -12.7020   -1.5890   -8.5120 H       1  UNL1        0.0569
      2 H         -15.2150   -1.8600   -6.7690 H       1  UNL1        0.0569
      3 H         -12.9140   -5.2510   -2.9210 H       1  UNL1        0.2922
      4 H         -11.4180   -4.0130   -0.0080 H       1  UNL1        0.0691
      5 H         -10.9530   -2.5820   -5.4330 H       1  UNL1        0.1490
      6 H         -11.8210   -4.9210   -6.7000 H       1  UNL1        0.0465
      7 H         -14.0690   -3.9080   -6.9540 H       1  UNL1        0.0322
      8 H         -15.7880    0.1250   -8.1340 H       1  UNL1        0.0307
      9 H         -15.1230    0.4110   -5.6150 H       1  UNL1        0.0268
     10 H         -13.0650    2.2920   -6.8170 H       1  UNL1        0.0274
     11 H         -14.0060    2.4130   -4.4090 H       1  UNL1        0.0427
     12 H         -12.6820   -1.0300   -4.9490 H       1  UNL1        0.0391
     13 H         -11.7510    2.8530   -3.3440 H       1  UNL1        0.0914
     14 H         -11.6770    4.6530   -4.4600 H       1  UNL1        0.2125
     15 H          -9.4290    2.8400   -3.5620 H       1  UNL1        0.0558
     16 H          -7.4140    2.4870   -4.9910 H       1  UNL1        0.0252
     17 H         -10.4450   -0.6580    0.4240 H       1  UNL1        0.2922
     18 H          -8.4600    1.9530   -6.3290 H       1  UNL1        0.0252
     19 H         -11.0620   -3.5180   -7.4690 H       1  UNL1        0.0465
     20 H         -13.2570   -4.0750   -8.5010 H       1  UNL1        0.0322
     21 H         -14.1010    0.4610   -8.5040 H       1  UNL1        0.0307
     22 H         -15.3320    1.8370   -6.6180 H       1  UNL1        0.0268
     23 H         -12.5410    0.6660   -6.4440 H       1  UNL1        0.0274
     24 H         -11.1910   -0.1840   -4.5240 H       1  UNL1        0.0391
     25 H          -9.5260    3.8160   -5.0530 H       1  UNL1        0.0558
     26 H          -8.3660    0.9880   -4.8610 H       1  UNL1        0.0252
     27 C         -12.0240   -3.7820   -2.0610 C.ar    1  UNL1        0.1328
     28 C         -11.5220   -3.3310   -0.8470 C.ar    1  UNL1        0.0235
     29 C         -11.1340   -2.0060   -0.7300 C.ar    1  UNL1        0.1389
     30 C         -11.2850   -1.1110   -1.8010 C.ar    1  UNL1        0.0868
     31 C         -11.8540   -1.5320   -3.0230 C.ar    1  UNL1       -0.0028
     32 C         -12.1450   -2.9130   -3.1640 C.ar    1  UNL1        0.0832
     33 C         -12.5100   -3.5490   -4.4610 C.2     1  UNL1        0.2479
     34 O         -13.3730   -4.4210   -4.4750 O.2     1  UNL1       -0.2701
     35 N         -11.7440   -3.2020   -5.5520 N.am    1  UNL1       -0.3109
     36 C         -11.9060   -3.8380   -6.8480 C.3     1  UNL1        0.0153
     37 C         -13.2330   -3.5260   -7.5510 C.3     1  UNL1       -0.0191
     38 C         -13.4330   -2.0640   -7.8610 C.2     1  UNL1       -0.0865
     39 C         -14.4830   -1.3620   -7.4050 C.2     1  UNL1       -0.0879
     40 C         -14.7710    0.0780   -7.7250 C.3     1  UNL1       -0.0347
     41 C         -14.7000    0.9520   -6.4700 C.3     1  UNL1       -0.0488
     42 C         -13.2730    1.4320   -6.1680 C.3     1  UNL1       -0.0385
     43 C         -13.1120    1.8380   -4.6920 C.3     1  UNL1        0.0685
     44 C         -13.0530    0.6310   -3.7560 C.2     1  UNL1        0.1455
     45 C         -12.1470   -0.5400   -4.1340 C.3     1  UNL1        0.0338
     46 O         -13.7420    0.6190   -2.7320 O.2     1  UNL1       -0.2966
     47 C         -11.8900    2.7260   -4.4250 C.3     1  UNL1        0.1656
     48 O         -12.1350    3.9980   -5.0100 O.3     1  UNL1       -0.3663
     49 O         -10.7360    2.1350   -5.0080 O.3     1  UNL1       -0.3511
     50 C          -9.5270    2.7970   -4.6520 C.3     1  UNL1        0.0478
     51 C          -8.3690    2.0160   -5.2400 C.3     1  UNL1       -0.0415
     52 CL        -10.6790    0.5020   -1.5860 Cl      1  UNL1       -0.0794
     53 O         -10.6000   -1.6190    0.4710 O.3     1  UNL1       -0.5052
     54 O         -12.3690   -5.1080   -2.1150 O.3     1  UNL1       -0.5059
@<TRIPOS>BOND
     1     1    38    1
     2    21    40    1
     3    20    37    1
     4     8    40    1
     5    38    37    1
     6    38    39    2
     7    40    39    1
     8    40    41    1
     9    37     7    1
    10    37    36    1
    11    19    36    1
    12    39     2    1
    13    36     6    1
    14    36    35    1
    15    10    42    1
    16    22    41    1
    17    41    42    1
    18    41     9    1
    19    23    42    1
    20    18    51    1
    21    42    43    1
    22    35     5    1
    23    35    33   am
    24    51    16    1
    25    51    26    1
    26    51    50    1
    27    25    50    1
    28    48    14    1
    29    48    47    1
    30    49    50    1
    31    49    47    1
    32    12    45    1
    33    43    47    1
    34    43    11    1
    35    43    44    1
    36    50    15    1
    37    24    45    1
    38    34    33    2
    39    33    32    1
    40    47    13    1
    41    45    44    1
    42    45    31    1
    43    44    46    2
    44    32    31   ar
    45    32    27   ar
    46    31    30   ar
    47     3    54    1
    48    54    27    1
    49    27    28   ar
    50    30    52    1
    51    30    29   ar
    52    28    29   ar
    53    28     4    1
    54    29    53    1
    55    17    53    1
