@<TRIPOS>MOLECULE
18.30576
 54 55 0 0 0
SMALL
GASTEIGER

@<TRIPOS>ATOM
      1 H         -13.3590    5.7570   -2.9100 H       1  UNL1        0.0569
      2 H         -12.3900    3.8880   -0.6770 H       1  UNL1        0.0569
      3 H         -13.8080    1.8270    2.6670 H       1  UNL1        0.2922
      4 H         -12.6950   -1.3150    1.7030 H       1  UNL1        0.0691
      5 H         -14.9710    3.4370   -1.0940 H       1  UNL1        0.1490
      6 H         -13.9160    5.0250    1.0090 H       1  UNL1        0.0465
      7 H         -14.0450    6.8660   -0.6040 H       1  UNL1        0.0322
      8 H         -10.6110    3.5060   -2.2970 H       1  UNL1        0.0307
      9 H         -12.5780    1.7800   -2.1740 H       1  UNL1        0.0268
     10 H         -12.8690    2.1140   -5.1070 H       1  UNL1        0.0274
     11 H         -14.1470    0.4840   -3.5180 H       1  UNL1        0.0427
     12 H         -16.7860    1.8310   -1.1680 H       1  UNL1        0.0391
     13 H         -15.7660    2.2100   -5.4860 H       1  UNL1        0.0914
     14 H         -17.1480    0.5340   -5.4940 H       1  UNL1        0.2125
     15 H         -15.2680    1.7200   -7.7090 H       1  UNL1        0.0558
     16 H         -14.5490    0.0230   -9.3950 H       1  UNL1        0.0252
     17 H         -13.8920   -3.0710   -1.1010 H       1  UNL1        0.2922
     18 H         -14.0060   -1.0470   -8.0810 H       1  UNL1        0.0252
     19 H         -15.6290    5.3850    0.7490 H       1  UNL1        0.0465
     20 H         -15.2710    6.0170   -1.5340 H       1  UNL1        0.0322
     21 H         -11.4960    4.2750   -3.6100 H       1  UNL1        0.0307
     22 H         -11.4170    1.6490   -3.4810 H       1  UNL1        0.0268
     23 H         -13.6720    3.4110   -4.2590 H       1  UNL1        0.0274
     24 H         -16.7540    0.4780   -2.2230 H       1  UNL1        0.0391
     25 H         -16.0980    0.1620   -7.4450 H       1  UNL1        0.0558
     26 H         -13.1890    0.4880   -8.3450 H       1  UNL1        0.0252
     27 C         -13.7740    0.4990    1.2740 C.ar    1  UNL1        0.1328
     28 C         -13.3670   -0.8040    1.0190 C.ar    1  UNL1        0.0235
     29 C         -13.8550   -1.4500   -0.0990 C.ar    1  UNL1        0.1389
     30 C         -14.7380   -0.8010   -0.9740 C.ar    1  UNL1        0.0868
     31 C         -15.1330    0.5480   -0.7640 C.ar    1  UNL1       -0.0028
     32 C         -14.6380    1.2060    0.3970 C.ar    1  UNL1        0.0832
     33 C         -14.9460    2.6100    0.8330 C.2     1  UNL1        0.2479
     34 O         -15.0150    2.8430    2.0400 O.2     1  UNL1       -0.2701
     35 N         -14.9690    3.6120   -0.0990 N.am    1  UNL1       -0.3109
     36 C         -14.7230    5.0000    0.2670 C.3     1  UNL1        0.0153
     37 C         -14.3540    5.8720   -0.9480 C.3     1  UNL1       -0.0191
     38 C         -13.3120    5.3340   -1.9080 C.2     1  UNL1       -0.0865
     39 C         -12.4560    4.3260   -1.6710 C.2     1  UNL1       -0.0879
     40 C         -11.6140    3.6510   -2.7160 C.3     1  UNL1       -0.0347
     41 C         -12.2170    2.2840   -3.0790 C.3     1  UNL1       -0.0488
     42 C         -13.3270    2.3770   -4.1450 C.3     1  UNL1       -0.0385
     43 C         -14.5320    1.4460   -3.8620 C.3     1  UNL1        0.0685
     44 C         -15.4390    2.0610   -2.8070 C.2     1  UNL1        0.1455
     45 C         -16.0910    1.1990   -1.7370 C.3     1  UNL1        0.0338
     46 O         -15.6870    3.2730   -2.8230 O.2     1  UNL1       -0.2966
     47 C         -15.3870    1.2450   -5.1220 C.3     1  UNL1        0.1656
     48 O         -16.4810    0.4000   -4.8010 O.3     1  UNL1       -0.3663
     49 O         -14.5800    0.6070   -6.1050 O.3     1  UNL1       -0.3511
     50 C         -15.1300    0.6730   -7.4160 C.3     1  UNL1        0.0478
     51 C         -14.1670   -0.0040   -8.3710 C.3     1  UNL1       -0.0415
     52 CL        -15.3480   -1.7540   -2.2950 Cl      1  UNL1       -0.0794
     53 O         -13.4510   -2.7430   -0.2950 O.3     1  UNL1       -0.5052
     54 O         -13.2690    1.0360    2.4350 O.3     1  UNL1       -0.5059
@<TRIPOS>BOND
     1    16    51    1
     2    51    26    1
     3    51    18    1
     4    51    50    1
     5    15    50    1
     6    25    50    1
     7    50    49    1
     8    49    47    1
     9    14    48    1
    10    13    47    1
    11    47    48    1
    12    47    43    1
    13    10    42    1
    14    23    42    1
    15    42    43    1
    16    42    41    1
    17    43    11    1
    18    43    44    1
    19    21    40    1
    20    22    41    1
    21    41    40    1
    22    41     9    1
    23     1    38    1
    24    46    44    2
    25    44    45    1
    26    40     8    1
    27    40    39    1
    28    52    30    1
    29    24    45    1
    30    38    39    2
    31    38    37    1
    32    45    12    1
    33    45    31    1
    34    39     2    1
    35    20    37    1
    36    17    53    1
    37     5    35    1
    38    30    31   ar
    39    30    29   ar
    40    37     7    1
    41    37    36    1
    42    31    32   ar
    43    53    29    1
    44    29    28   ar
    45    35    36    1
    46    35    33   am
    47    36    19    1
    48    36     6    1
    49    32    33    1
    50    32    27   ar
    51    33    34    2
    52    28    27   ar
    53    28     4    1
    54    27    54    1
    55    54     3    1
