@<TRIPOS>MOLECULE
8.66263
 54 55 0 0 0
SMALL
GASTEIGER

@<TRIPOS>ATOM
      1 H          -9.5300    0.7910  -11.2680 H       1  UNL1        0.0569
      2 H         -10.5830    2.6970  -13.4350 H       1  UNL1        0.0569
      3 H          -8.6150   -4.5830  -14.6250 H       1  UNL1        0.2922
      4 H         -10.7620   -5.7170  -17.1400 H       1  UNL1        0.0691
      5 H          -9.9750   -0.7480  -14.7110 H       1  UNL1        0.1490
      6 H          -7.4500   -0.8340  -13.9610 H       1  UNL1        0.0465
      7 H          -8.7290    1.3270  -14.2170 H       1  UNL1        0.0322
      8 H         -11.4450    3.6270  -11.2020 H       1  UNL1        0.0307
      9 H         -13.3030    3.1020  -12.6590 H       1  UNL1        0.0268
     10 H         -14.2950    0.6340  -12.0450 H       1  UNL1        0.0274
     11 H         -12.8540    1.7640  -14.3790 H       1  UNL1        0.0427
     12 H         -11.9950   -1.7180  -12.9940 H       1  UNL1        0.0391
     13 H         -15.2570    1.6740  -14.3090 H       1  UNL1        0.0914
     14 H         -16.3590   -0.1630  -14.1090 H       1  UNL1        0.2125
     15 H         -16.2490    1.8200  -16.4290 H       1  UNL1        0.0558
     16 H         -16.5170    0.8470  -18.7150 H       1  UNL1        0.0252
     17 H         -14.0350   -4.5030  -17.6050 H       1  UNL1        0.2922
     18 H         -15.1780   -0.2790  -18.3880 H       1  UNL1        0.0252
     19 H          -8.1770   -1.0780  -12.3710 H       1  UNL1        0.0465
     20 H          -7.5690    1.3270  -12.8860 H       1  UNL1        0.0322
     21 H         -11.4170    2.0090  -10.5230 H       1  UNL1        0.0307
     22 H         -13.6700    2.5370  -11.0430 H       1  UNL1        0.0268
     23 H         -12.6000    0.2280  -11.9760 H       1  UNL1        0.0274
     24 H         -13.5730   -1.8890  -13.6860 H       1  UNL1        0.0391
     25 H         -16.5750    0.0670  -16.3480 H       1  UNL1        0.0558
     26 H         -14.8590    1.4480  -18.4730 H       1  UNL1        0.0252
     27 C         -10.2570   -4.3190  -15.5840 C.ar    1  UNL1        0.1328
     28 C         -11.1020   -4.8890  -16.5250 C.ar    1  UNL1        0.0235
     29 C         -12.3860   -4.3870  -16.6660 C.ar    1  UNL1        0.1389
     30 C         -12.8470   -3.3370  -15.8540 C.ar    1  UNL1        0.0868
     31 C         -12.0090   -2.7500  -14.8820 C.ar    1  UNL1       -0.0028
     32 C         -10.6770   -3.2270  -14.7970 C.ar    1  UNL1        0.0832
     33 C          -9.6450   -2.6320  -13.9090 C.2     1  UNL1        0.2479
     34 O          -8.9430   -3.3820  -13.2370 O.2     1  UNL1       -0.2701
     35 N          -9.4520   -1.2760  -14.0080 N.am    1  UNL1       -0.3109
     36 C          -8.3380   -0.6200  -13.3540 C.3     1  UNL1        0.0153
     37 C          -8.5170    0.8960  -13.2310 C.3     1  UNL1       -0.0191
     38 C          -9.5810    1.2810  -12.2390 C.2     1  UNL1       -0.0865
     39 C         -10.5430    2.1880  -12.4740 C.2     1  UNL1       -0.0879
     40 C         -11.5770    2.5680  -11.4540 C.3     1  UNL1       -0.0347
     41 C         -13.0240    2.3490  -11.9110 C.3     1  UNL1       -0.0488
     42 C         -13.3100    0.9290  -12.4270 C.3     1  UNL1       -0.0385
     43 C         -13.3030    0.8480  -13.9700 C.3     1  UNL1        0.0685
     44 C         -12.4000   -0.2650  -14.5020 C.2     1  UNL1        0.1455
     45 C         -12.5350   -1.6740  -13.9470 C.3     1  UNL1        0.0338
     46 O         -11.5050    0.0050  -15.3160 O.2     1  UNL1       -0.2966
     47 C         -14.7160    0.7540  -14.5660 C.3     1  UNL1        0.1656
     48 O         -15.4110   -0.3460  -14.0050 O.3     1  UNL1       -0.3663
     49 O         -14.6170    0.6320  -15.9760 O.3     1  UNL1       -0.3511
     50 C         -15.8500    0.8260  -16.6570 C.3     1  UNL1        0.0478
     51 C         -15.5930    0.7050  -18.1470 C.3     1  UNL1       -0.0415
     52 CL        -14.4850   -2.8200  -16.0870 Cl      1  UNL1       -0.0794
     53 O         -13.1820   -4.9750  -17.6130 O.3     1  UNL1       -0.5052
     54 O          -9.0110   -4.8820  -15.4730 O.3     1  UNL1       -0.5059
@<TRIPOS>BOND
     1    16    51    1
     2    26    51    1
     3    18    51    1
     4    51    50    1
     5    53    17    1
     6    53    29    1
     7     4    28    1
     8    29    28   ar
     9    29    30   ar
    10    50    15    1
    11    50    25    1
    12    50    49    1
    13    28    27   ar
    14    52    30    1
    15    49    47    1
    16    30    31   ar
    17    27    54    1
    18    27    32   ar
    19    54     3    1
    20    46    44    2
    21    31    32   ar
    22    31    45    1
    23    32    33    1
    24     5    35    1
    25    47    13    1
    26    47    48    1
    27    47    43    1
    28    44    43    1
    29    44    45    1
    30    11    43    1
    31     7    37    1
    32    14    48    1
    33    35    33   am
    34    35    36    1
    35    43    42    1
    36     6    36    1
    37    45    24    1
    38    45    12    1
    39    33    34    2
    40     2    39    1
    41    36    37    1
    42    36    19    1
    43    37    20    1
    44    37    38    1
    45     9    41    1
    46    39    38    2
    47    39    40    1
    48    42    10    1
    49    42    23    1
    50    42    41    1
    51    38     1    1
    52    41    40    1
    53    41    22    1
    54    40     8    1
    55    40    21    1
