@<TRIPOS>MOLECULE
25.89833
 54 55 0 0 0
SMALL
GASTEIGER

@<TRIPOS>ATOM
      1 H         -16.7340   -1.8810   -7.8010 H       1  UNL1        0.0569
      2 H         -15.3810   -2.1230   -5.0530 H       1  UNL1        0.0569
      3 H         -17.9620    0.5180   -7.8830 H       1  UNL1        0.2922
      4 H         -20.2110    2.9760   -7.4490 H       1  UNL1        0.0691
      5 H         -16.3920    1.4890   -8.4470 H       1  UNL1        0.1490
      6 H         -13.8100    0.6820   -8.1950 H       1  UNL1        0.0465
      7 H         -13.9800   -1.0630   -6.6240 H       1  UNL1        0.0322
      8 H         -17.5620   -3.7470   -5.4680 H       1  UNL1        0.0307
      9 H         -18.7500   -2.9040   -3.5820 H       1  UNL1        0.0268
     10 H         -18.5040   -0.9730   -2.4170 H       1  UNL1        0.0274
     11 H         -15.9740   -0.1700   -3.9210 H       1  UNL1        0.0427
     12 H         -16.3640    3.2820   -2.9340 H       1  UNL1        0.0391
     13 H         -16.4110   -0.7270   -0.9410 H       1  UNL1        0.0914
     14 H         -14.5030    0.1820   -0.6710 H       1  UNL1        0.2125
     15 H         -15.4580   -2.7350   -0.2420 H       1  UNL1        0.0558
     16 H         -13.7760   -4.5420   -0.6230 H       1  UNL1        0.0252
     17 H         -20.5860    4.7490   -4.4380 H       1  UNL1        0.2922
     18 H         -13.4580   -3.8960   -2.2510 H       1  UNL1        0.0252
     19 H         -14.9830   -0.0550   -9.2960 H       1  UNL1        0.0465
     20 H         -14.1200   -1.9240   -8.1430 H       1  UNL1        0.0322
     21 H         -18.3260   -2.2100   -5.8720 H       1  UNL1        0.0307
     22 H         -17.0600   -2.9880   -3.1940 H       1  UNL1        0.0268
     23 H         -18.4960   -0.4180   -4.0720 H       1  UNL1        0.0274
     24 H         -15.4170    2.2030   -3.8290 H       1  UNL1        0.0391
     25 H         -13.8530   -2.0480   -0.6150 H       1  UNL1        0.0558
     26 H         -15.0380   -4.5740   -1.8780 H       1  UNL1        0.0252
     27 C         -18.2870    2.1400   -6.9460 C.ar    1  UNL1        0.1328
     28 C         -19.4130    2.9200   -6.7140 C.ar    1  UNL1        0.0235
     29 C         -19.5170    3.6050   -5.5190 C.ar    1  UNL1        0.1389
     30 C         -18.5300    3.4780   -4.5340 C.ar    1  UNL1        0.0868
     31 C         -17.3750    2.6790   -4.7480 C.ar    1  UNL1       -0.0028
     32 C         -17.2130    2.0710   -6.0260 C.ar    1  UNL1        0.0832
     33 C         -15.9340    1.3730   -6.4300 C.2     1  UNL1        0.2479
     34 O         -15.0390    1.1330   -5.6340 O.2     1  UNL1       -0.2701
     35 N         -15.8110    1.0170   -7.7590 N.am    1  UNL1       -0.3109
     36 C         -14.7600    0.1370   -8.2400 C.3     1  UNL1        0.0153
     37 C         -14.6350   -1.2060   -7.4930 C.3     1  UNL1       -0.0191
     38 C         -15.9520   -1.7970   -7.0510 C.2     1  UNL1       -0.0865
     39 C         -16.1890   -2.1760   -5.7830 C.2     1  UNL1       -0.0879
     40 C         -17.5150   -2.6650   -5.2900 C.3     1  UNL1       -0.0347
     41 C         -17.7820   -2.4300   -3.7950 C.3     1  UNL1       -0.0488
     42 C         -17.8980   -0.9690   -3.3340 C.3     1  UNL1       -0.0385
     43 C         -16.6050   -0.1740   -3.0360 C.3     1  UNL1        0.0685
     44 C         -16.9970    1.2620   -2.7040 C.2     1  UNL1        0.1455
     45 C         -16.4560    2.3940   -3.5710 C.3     1  UNL1        0.0338
     46 O         -17.7720    1.4960   -1.7690 O.2     1  UNL1       -0.2966
     47 C         -15.7840   -0.6800   -1.8410 C.3     1  UNL1        0.1656
     48 O         -14.7060    0.2240   -1.6190 O.3     1  UNL1       -0.3663
     49 O         -15.2440   -1.9590   -2.1490 O.3     1  UNL1       -0.3511
     50 C         -14.6930   -2.6230   -1.0180 C.3     1  UNL1        0.0478
     51 C         -14.2110   -3.9900   -1.4610 C.3     1  UNL1       -0.0415
     52 CL        -18.7930    4.3510   -3.0540 Cl      1  UNL1       -0.0794
     53 O         -20.6400    4.3650   -5.3340 O.3     1  UNL1       -0.5052
     54 O         -18.3350    1.3970   -8.1000 O.3     1  UNL1       -0.5059
@<TRIPOS>BOND
     1    19    36    1
     2     5    35    1
     3    36     6    1
     4    36    35    1
     5    36    37    1
     6    20    37    1
     7    54     3    1
     8    54    27    1
     9     1    38    1
    10    35    33   am
    11    37    38    1
    12    37     7    1
    13     4    28    1
    14    38    39    2
    15    27    28   ar
    16    27    32   ar
    17    28    29   ar
    18    33    32    1
    19    33    34    2
    20    32    31   ar
    21    21    40    1
    22    39    40    1
    23    39     2    1
    24    29    53    1
    25    29    30   ar
    26     8    40    1
    27    53    17    1
    28    40    41    1
    29    31    30   ar
    30    31    45    1
    31    30    52    1
    32    23    42    1
    33    11    43    1
    34    24    45    1
    35    41     9    1
    36    41    42    1
    37    41    22    1
    38    45    12    1
    39    45    44    1
    40    42    43    1
    41    42    10    1
    42    43    44    1
    43    43    47    1
    44    44    46    2
    45    18    51    1
    46    49    47    1
    47    49    50    1
    48    26    51    1
    49    47    48    1
    50    47    13    1
    51    48    14    1
    52    51    50    1
    53    51    16    1
    54    50    25    1
    55    50    15    1
