@<TRIPOS>MOLECULE
20.05800
 54 55 0 0 0
SMALL
GASTEIGER

@<TRIPOS>ATOM
      1 H         -17.5090    3.4930   -9.0100 H       1  UNL1        0.0569
      2 H         -19.4730    2.7780  -11.2590 H       1  UNL1        0.0569
      3 H         -17.5320   -0.8150  -13.0940 H       1  UNL1        0.2922
      4 H         -15.1130   -1.3140  -15.5380 H       1  UNL1        0.0691
      5 H         -15.1240    0.9760  -10.0860 H       1  UNL1        0.1490
      6 H         -16.3930    1.0560   -8.2730 H       1  UNL1        0.0465
      7 H         -18.7790    1.4020   -8.1940 H       1  UNL1        0.0322
      8 H         -17.7990    5.3020  -10.5660 H       1  UNL1        0.0307
      9 H         -17.9900    5.8620  -12.9550 H       1  UNL1        0.0268
     10 H         -16.8580    3.9790  -14.1160 H       1  UNL1        0.0274
     11 H         -15.8230    5.4090  -11.8140 H       1  UNL1        0.0427
     12 H         -13.1030    3.0670  -12.1250 H       1  UNL1        0.0391
     13 H         -15.0890    5.8640  -14.0090 H       1  UNL1        0.0914
     14 H         -14.2120    4.4330  -15.2940 H       1  UNL1        0.2125
     15 H         -13.0440    7.0060  -14.1640 H       1  UNL1        0.0558
     16 H         -10.6120    7.0940  -13.5920 H       1  UNL1        0.0252
     17 H         -12.0720    0.4410  -15.7260 H       1  UNL1        0.2922
     18 H         -10.8200    5.6900  -12.5170 H       1  UNL1        0.0252
     19 H         -17.1590   -0.3740   -8.9710 H       1  UNL1        0.0465
     20 H         -19.0050    0.9110   -9.8580 H       1  UNL1        0.0322
     21 H         -19.4860    5.3710  -11.0520 H       1  UNL1        0.0307
     22 H         -18.9990    4.4580  -13.2500 H       1  UNL1        0.0268
     23 H         -17.0920    2.9460  -12.7330 H       1  UNL1        0.0274
     24 H         -13.6110    2.0060  -10.8810 H       1  UNL1        0.0391
     25 H         -12.2320    5.4670  -14.5630 H       1  UNL1        0.0558
     26 H         -11.6130    7.2110  -12.1250 H       1  UNL1        0.0252
     27 C         -15.7680   -0.3660  -13.7190 C.ar    1  UNL1        0.1328
     28 C         -14.8880   -0.5780  -14.7720 C.ar    1  UNL1        0.0235
     29 C         -13.7130    0.1410  -14.8120 C.ar    1  UNL1        0.1389
     30 C         -13.4260    1.1020  -13.8310 C.ar    1  UNL1        0.0868
     31 C         -14.3390    1.3900  -12.7730 C.ar    1  UNL1       -0.0028
     32 C         -15.5030    0.5750  -12.6860 C.ar    1  UNL1        0.0832
     33 C         -16.5130    0.5720  -11.5740 C.2     1  UNL1        0.2479
     34 O         -17.6710    0.2580  -11.8480 O.2     1  UNL1       -0.2701
     35 N         -16.0960    0.8100  -10.2900 N.am    1  UNL1       -0.3109
     36 C         -16.9730    0.6950   -9.1300 C.3     1  UNL1        0.0153
     37 C         -18.3180    1.4400   -9.1890 C.3     1  UNL1       -0.0191
     38 C         -18.1890    2.8800   -9.5980 C.2     1  UNL1       -0.0865
     39 C         -18.8030    3.4020  -10.6710 C.2     1  UNL1       -0.0879
     40 C         -18.5600    4.7950  -11.1700 C.3     1  UNL1       -0.0347
     41 C         -18.1540    4.8210  -12.6500 C.3     1  UNL1       -0.0488
     42 C         -16.9170    3.9840  -13.0200 C.3     1  UNL1       -0.0385
     43 C         -15.6040    4.5180  -12.4200 C.3     1  UNL1        0.0685
     44 C         -14.9870    3.5460  -11.4080 C.2     1  UNL1        0.1455
     45 C         -13.9700    2.4920  -11.7970 C.3     1  UNL1        0.0338
     46 O         -15.2570    3.6770  -10.2050 O.2     1  UNL1       -0.2966
     47 C         -14.6250    5.0130  -13.4930 C.3     1  UNL1        0.1656
     48 O         -14.3780    3.9950  -14.4430 O.3     1  UNL1       -0.3663
     49 O         -13.4230    5.4380  -12.8670 O.3     1  UNL1       -0.3511
     50 C         -12.5410    6.1270  -13.7460 C.3     1  UNL1        0.0478
     51 C         -11.3220    6.5590  -12.9550 C.3     1  UNL1       -0.0415
     52 CL        -11.8690    1.8770  -13.9680 Cl      1  UNL1       -0.0794
     53 O         -12.8530   -0.1310  -15.8430 O.3     1  UNL1       -0.5052
     54 O         -16.8950   -1.1540  -13.7630 O.3     1  UNL1       -0.5059
@<TRIPOS>BOND
     1    53    17    1
     2    53    29    1
     3     4    28    1
     4    14    48    1
     5    29    28   ar
     6    29    30   ar
     7    28    27   ar
     8    25    50    1
     9    48    47    1
    10    15    50    1
    11    10    42    1
    12    13    47    1
    13    52    30    1
    14    30    31   ar
    15    54    27    1
    16    54     3    1
    17    50    51    1
    18    50    49    1
    19    27    32   ar
    20    16    51    1
    21    47    49    1
    22    47    43    1
    23    22    41    1
    24    42    23    1
    25    42    41    1
    26    42    43    1
    27     9    41    1
    28    51    18    1
    29    51    26    1
    30    31    32   ar
    31    31    45    1
    32    32    33    1
    33    41    40    1
    34    43    11    1
    35    43    44    1
    36    12    45    1
    37    34    33    2
    38    45    44    1
    39    45    24    1
    40    33    35   am
    41    44    46    2
    42     2    39    1
    43    40    21    1
    44    40    39    1
    45    40     8    1
    46    39    38    2
    47    35     5    1
    48    35    36    1
    49    20    37    1
    50    38    37    1
    51    38     1    1
    52    37    36    1
    53    37     7    1
    54    36    19    1
    55    36     6    1
