@<TRIPOS>MOLECULE
7.75539
 54 55 0 0 0
SMALL
GASTEIGER

@<TRIPOS>ATOM
      1 H         -19.6430    2.8830   -7.3500 H       1  UNL1        0.0569
      2 H         -18.6480    3.7450  -10.1240 H       1  UNL1        0.0569
      3 H         -18.8650   -3.1060  -10.6420 H       1  UNL1        0.2922
      4 H         -20.2750   -3.2890  -13.8360 H       1  UNL1        0.0691
      5 H         -19.5260    0.9070  -10.1810 H       1  UNL1        0.1490
      6 H         -17.7090   -0.3030   -8.3240 H       1  UNL1        0.0465
      7 H         -17.3270    1.9950   -9.2120 H       1  UNL1        0.0322
      8 H         -20.6980    4.8750  -10.3380 H       1  UNL1        0.0307
      9 H         -22.3240    5.3760   -8.6020 H       1  UNL1        0.0268
     10 H         -23.2750    3.2690   -7.9910 H       1  UNL1        0.0274
     11 H         -22.6350    3.8880  -10.7020 H       1  UNL1        0.0427
     12 H         -21.9760    0.2330   -9.3740 H       1  UNL1        0.0391
     13 H         -24.5660    2.3960  -11.2860 H       1  UNL1        0.0914
     14 H         -25.8400    3.9460  -10.5580 H       1  UNL1        0.2125
     15 H         -26.2520    0.9700  -10.5400 H       1  UNL1        0.0558
     16 H         -27.4540   -0.1200   -8.6420 H       1  UNL1        0.0252
     17 H         -23.0260   -1.3490  -14.8750 H       1  UNL1        0.2922
     18 H         -26.2870    0.5910   -7.5000 H       1  UNL1        0.0252
     19 H         -19.1570    0.2390   -7.4700 H       1  UNL1        0.0465
     20 H         -17.3070    1.9550   -7.4510 H       1  UNL1        0.0322
     21 H         -19.9560    5.7520   -9.0260 H       1  UNL1        0.0307
     22 H         -21.3540    4.6050   -7.3660 H       1  UNL1        0.0268
     23 H         -21.8000    2.3870   -8.2870 H       1  UNL1        0.0274
     24 H         -23.3790    0.2250  -10.4020 H       1  UNL1        0.0391
     25 H         -26.8110    2.1830   -9.3550 H       1  UNL1        0.0558
     26 H         -25.7410   -0.6040   -8.6710 H       1  UNL1        0.0252
     27 C         -20.0610   -2.3230  -11.9240 C.ar    1  UNL1        0.1328
     28 C         -20.6560   -2.5270  -13.1620 C.ar    1  UNL1        0.0235
     29 C         -21.7460   -1.7500  -13.5210 C.ar    1  UNL1        0.1389
     30 C         -22.2660   -0.7870  -12.6430 C.ar    1  UNL1        0.0868
     31 C         -21.6800   -0.5670  -11.3770 C.ar    1  UNL1       -0.0028
     32 C         -20.5290   -1.3200  -11.0520 C.ar    1  UNL1        0.0832
     33 C         -19.7610   -1.1270   -9.8010 C.2     1  UNL1        0.2479
     34 O         -19.4620   -2.1130   -9.1350 O.2     1  UNL1       -0.2701
     35 N         -19.3360    0.1500   -9.5270 N.am    1  UNL1       -0.3109
     36 C         -18.5300    0.4230   -8.3500 C.3     1  UNL1        0.0153
     37 C         -17.9560    1.8410   -8.3270 C.3     1  UNL1       -0.0191
     38 C         -19.0390    2.8820   -8.2550 C.2     1  UNL1       -0.0865
     39 C         -19.2840    3.7600   -9.2380 C.2     1  UNL1       -0.0879
     40 C         -20.3870    4.7790   -9.2920 C.3     1  UNL1       -0.0347
     41 C         -21.6310    4.5430   -8.4260 C.3     1  UNL1       -0.0488
     42 C         -22.4000    3.2270   -8.6510 C.3     1  UNL1       -0.0385
     43 C         -22.8420    2.9870  -10.1090 C.3     1  UNL1        0.0685
     44 C         -22.0140    1.8720  -10.7520 C.2     1  UNL1        0.1455
     45 C         -22.3050    0.4170  -10.4010 C.3     1  UNL1        0.0338
     46 O         -21.0520    2.1590  -11.4750 O.2     1  UNL1       -0.2966
     47 C         -24.3500    2.7350  -10.2660 C.3     1  UNL1        0.1656
     48 O         -25.0180    3.9690  -10.0420 O.3     1  UNL1       -0.3663
     49 O         -24.7820    1.7680   -9.3180 O.3     1  UNL1       -0.3511
     50 C         -26.1270    1.3450   -9.5190 C.3     1  UNL1        0.0478
     51 C         -26.4270    0.2380   -8.5270 C.3     1  UNL1       -0.0415
     52 CL        -23.6640    0.1040  -13.1610 Cl      1  UNL1       -0.0794
     53 O         -22.2960   -1.9830  -14.7530 O.3     1  UNL1       -0.5052
     54 O         -19.0130   -3.1500  -11.6120 O.3     1  UNL1       -0.5059
@<TRIPOS>BOND
     1    17    53    1
     2    53    29    1
     3     4    28    1
     4    29    28   ar
     5    29    30   ar
     6    28    27   ar
     7    52    30    1
     8    30    31   ar
     9    27    54    1
    10    27    32   ar
    11    54     3    1
    12    46    44    2
    13    31    32   ar
    14    31    45    1
    15    13    47    1
    16    32    33    1
    17    44    45    1
    18    44    43    1
    19    11    43    1
    20    14    48    1
    21    15    50    1
    22    24    45    1
    23    45    12    1
    24     8    40    1
    25    47    43    1
    26    47    48    1
    27    47    49    1
    28     5    35    1
    29     2    39    1
    30    43    42    1
    31    33    35   am
    32    33    34    2
    33    35    36    1
    34    50    25    1
    35    50    49    1
    36    50    51    1
    37    40    39    1
    38    40    21    1
    39    40    41    1
    40    39    38    2
    41     7    37    1
    42    26    51    1
    43    42    41    1
    44    42    23    1
    45    42    10    1
    46    16    51    1
    47     9    41    1
    48    51    18    1
    49    41    22    1
    50    36    37    1
    51    36     6    1
    52    36    19    1
    53    37    38    1
    54    37    20    1
    55    38     1    1
