@<TRIPOS>MOLECULE
12.00486
 54 55 0 0 0
SMALL
GASTEIGER

@<TRIPOS>ATOM
      1 H         -19.5100    0.9660   -5.3020 H       1  UNL1        0.0569
      2 H         -16.9550    1.0190   -3.5970 H       1  UNL1        0.0569
      3 H         -16.6290    5.7440   -8.8910 H       1  UNL1        0.2922
      4 H         -14.3950    8.0220   -7.4810 H       1  UNL1        0.0691
      5 H         -16.2120    3.0130   -5.9230 H       1  UNL1        0.1490
      6 H         -16.9650    1.7430   -8.1080 H       1  UNL1        0.0465
      7 H         -16.5040    0.5580   -5.9390 H       1  UNL1        0.0322
      8 H         -18.5770    0.5810   -1.8340 H       1  UNL1        0.0307
      9 H         -17.9170    3.0670   -2.0970 H       1  UNL1        0.0268
     10 H         -20.8780    3.3130   -2.7620 H       1  UNL1        0.0274
     11 H         -19.1610    5.2200   -1.7300 H       1  UNL1        0.0427
     12 H         -16.8210    4.7670   -3.1510 H       1  UNL1        0.0391
     13 H         -20.7550    6.9590   -2.7160 H       1  UNL1        0.0914
     14 H         -22.3620    6.2000   -1.4880 H       1  UNL1        0.2125
     15 H         -22.0660    7.4340   -4.5540 H       1  UNL1        0.0558
     16 H         -24.0490    6.7450   -5.9090 H       1  UNL1        0.0252
     17 H         -14.2030    8.6690   -4.0260 H       1  UNL1        0.2922
     18 H         -23.8440    5.0680   -5.3460 H       1  UNL1        0.0252
     19 H         -18.5690    2.2040   -7.5250 H       1  UNL1        0.0465
     20 H         -17.8610   -0.1310   -6.8250 H       1  UNL1        0.0322
     21 H         -19.9560    0.9080   -2.8720 H       1  UNL1        0.0307
     22 H         -19.3210    2.7020   -1.1120 H       1  UNL1        0.0268
     23 H         -19.7150    3.3820   -4.0650 H       1  UNL1        0.0274
     24 H         -17.6490    4.0280   -4.4920 H       1  UNL1        0.0391
     25 H         -23.3230    6.6980   -3.5210 H       1  UNL1        0.0558
     26 H         -22.6090    5.8020   -6.3620 H       1  UNL1        0.0252
     27 C         -15.7620    6.3690   -7.2970 C.ar    1  UNL1        0.1328
     28 C         -14.9550    7.3850   -6.8030 C.ar    1  UNL1        0.0235
     29 C         -14.8910    7.5870   -5.4330 C.ar    1  UNL1        0.1389
     30 C         -15.6380    6.7920   -4.5500 C.ar    1  UNL1        0.0868
     31 C         -16.4540    5.7430   -5.0300 C.ar    1  UNL1       -0.0028
     32 C         -16.4790    5.5230   -6.4290 C.ar    1  UNL1        0.0832
     33 C         -17.2220    4.4100   -7.0710 C.2     1  UNL1        0.2479
     34 O         -17.9280    4.6480   -8.0450 O.2     1  UNL1       -0.2701
     35 N         -16.9480    3.1450   -6.6050 N.am    1  UNL1       -0.3109
     36 C         -17.5470    1.9670   -7.2070 C.3     1  UNL1        0.0153
     37 C         -17.5310    0.7550   -6.2700 C.3     1  UNL1       -0.0191
     38 C         -18.4430    0.9310   -5.0850 C.2     1  UNL1       -0.0865
     39 C         -18.0200    1.0530   -3.8180 C.2     1  UNL1       -0.0879
     40 C         -18.9360    1.2350   -2.6380 C.3     1  UNL1       -0.0347
     41 C         -18.9420    2.6850   -2.1420 C.3     1  UNL1       -0.0488
     42 C         -19.8420    3.5910   -2.9980 C.3     1  UNL1       -0.0385
     43 C         -19.6100    5.0940   -2.7240 C.3     1  UNL1        0.0685
     44 C         -18.6410    5.7470   -3.7230 C.2     1  UNL1        0.1455
     45 C         -17.3640    4.9900   -4.0750 C.3     1  UNL1        0.0338
     46 O         -18.8350    6.8890   -4.1490 O.2     1  UNL1       -0.2966
     47 C         -20.9360    5.8780   -2.7520 C.3     1  UNL1        0.1656
     48 O         -21.6770    5.5210   -1.5890 O.3     1  UNL1       -0.3663
     49 O         -21.6740    5.5070   -3.9100 O.3     1  UNL1       -0.3511
     50 C         -22.6000    6.5060   -4.3210 C.3     1  UNL1        0.0478
     51 C         -23.3220    6.0080   -5.5570 C.3     1  UNL1       -0.0415
     52 CL        -15.5190    7.1450   -2.8530 Cl      1  UNL1       -0.0794
     53 O         -14.0860    8.6030   -4.9920 O.3     1  UNL1       -0.5052
     54 O         -15.8160    6.2470   -8.6620 O.3     1  UNL1       -0.5059
@<TRIPOS>BOND
     1     3    54    1
     2    54    27    1
     3     6    36    1
     4    34    33    2
     5    19    36    1
     6     4    28    1
     7    27    28   ar
     8    27    32   ar
     9    36    35    1
    10    36    37    1
    11    33    35   am
    12    33    32    1
    13    20    37    1
    14    28    29   ar
    15    35     5    1
    16    32    31   ar
    17    26    51    1
    18    37     7    1
    19    37    38    1
    20    16    51    1
    21    51    18    1
    22    51    50    1
    23    29    53    1
    24    29    30   ar
    25     1    38    1
    26    38    39    2
    27    31    30   ar
    28    31    45    1
    29    53    17    1
    30    15    50    1
    31    30    52    1
    32    24    45    1
    33    50    49    1
    34    50    25    1
    35    46    44    2
    36    45    44    1
    37    45    12    1
    38    23    42    1
    39    49    47    1
    40    39     2    1
    41    39    40    1
    42    44    43    1
    43    42    10    1
    44    42    43    1
    45    42    41    1
    46    21    40    1
    47    47    43    1
    48    47    13    1
    49    47    48    1
    50    43    11    1
    51    40    41    1
    52    40     8    1
    53    41     9    1
    54    41    22    1
    55    48    14    1
