@<TRIPOS>MOLECULE
10.04851
 54 55 0 0 0
SMALL
GASTEIGER

@<TRIPOS>ATOM
      1 H         -18.4890    2.0890   -6.0620 H       1  UNL1        0.0569
      2 H         -19.2030   -0.3960   -7.7200 H       1  UNL1        0.0569
      3 H         -21.4770   -1.1450   -1.2070 H       1  UNL1        0.2922
      4 H         -20.3710    0.2990    1.7610 H       1  UNL1        0.0691
      5 H         -20.2560    1.8810   -3.5890 H       1  UNL1        0.1490
      6 H         -22.1300    0.6950   -4.9040 H       1  UNL1        0.0465
      7 H         -20.8380    2.4840   -6.0390 H       1  UNL1        0.0322
      8 H         -16.5590    1.1400   -7.2020 H       1  UNL1        0.0307
      9 H         -15.4220   -1.0600   -7.1650 H       1  UNL1        0.0268
     10 H         -16.1440   -2.0450   -5.0360 H       1  UNL1        0.0274
     11 H         -16.3620    1.0090   -5.0080 H       1  UNL1        0.0427
     12 H         -16.7530    2.0890   -2.6150 H       1  UNL1        0.0391
     13 H         -14.2660   -0.8410   -3.7440 H       1  UNL1        0.0914
     14 H         -13.4090    1.0110   -3.1060 H       1  UNL1        0.2125
     15 H         -12.4210   -1.2670   -5.0910 H       1  UNL1        0.0558
     16 H         -10.8980   -0.4780   -6.9050 H       1  UNL1        0.0252
     17 H         -17.3020    1.9980    2.0580 H       1  UNL1        0.2922
     18 H         -12.0820    0.7740   -7.3500 H       1  UNL1        0.0252
     19 H         -20.8830   -0.4960   -5.2840 H       1  UNL1        0.0465
     20 H         -21.1640    1.1490   -7.1320 H       1  UNL1        0.0322
     21 H         -16.9470    0.1890   -8.6160 H       1  UNL1        0.0307
     22 H         -16.9440   -1.8960   -7.3350 H       1  UNL1        0.0268
     23 H         -17.6960   -1.2530   -5.1330 H       1  UNL1        0.0274
     24 H         -18.0980    1.6180   -3.5860 H       1  UNL1        0.0391
     25 H         -12.0070    0.4550   -4.8720 H       1  UNL1        0.0558
     26 H         -12.4900   -0.9240   -7.5650 H       1  UNL1        0.0252
     27 C         -20.2840    0.1080   -0.3820 C.ar    1  UNL1        0.1328
     28 C         -19.8160    0.5270    0.8560 C.ar    1  UNL1        0.0235
     29 C         -18.6120    1.2110    0.9220 C.ar    1  UNL1        0.1389
     30 C         -17.8660    1.4800   -0.2380 C.ar    1  UNL1        0.0868
     31 C         -18.3410    1.0960   -1.5110 C.ar    1  UNL1       -0.0028
     32 C         -19.5840    0.4150   -1.5650 C.ar    1  UNL1        0.0832
     33 C         -20.2070   -0.0450   -2.8300 C.2     1  UNL1        0.2479
     34 O         -20.6180   -1.1990   -2.9010 O.2     1  UNL1       -0.2701
     35 N         -20.4040    0.9040   -3.8070 N.am    1  UNL1       -0.3109
     36 C         -21.0540    0.5630   -5.0610 C.3     1  UNL1        0.0153
     37 C         -20.5970    1.4320   -6.2370 C.3     1  UNL1       -0.0191
     38 C         -19.1220    1.3290   -6.5140 C.2     1  UNL1       -0.0865
     39 C         -18.5700    0.3660   -7.2690 C.2     1  UNL1       -0.0879
     40 C         -17.0950    0.2430   -7.5300 C.3     1  UNL1       -0.0347
     41 C         -16.4800   -1.0070   -6.8890 C.3     1  UNL1       -0.0488
     42 C         -16.6300   -1.1160   -5.3630 C.3     1  UNL1       -0.0385
     43 C         -16.0810    0.0610   -4.5370 C.3     1  UNL1        0.0685
     44 C         -16.7280    0.0330   -3.1590 C.2     1  UNL1        0.1455
     45 C         -17.4850    1.2860   -2.7470 C.3     1  UNL1        0.0338
     46 O         -16.6030   -0.9410   -2.4150 O.2     1  UNL1       -0.2966
     47 C         -14.5660    0.0440   -4.3200 C.3     1  UNL1        0.1656
     48 O         -14.2190    1.2220   -3.5980 O.3     1  UNL1       -0.3663
     49 O         -13.9170    0.0760   -5.5830 O.3     1  UNL1       -0.3511
     50 C         -12.5360   -0.2610   -5.5090 C.3     1  UNL1        0.0478
     51 C         -11.9610   -0.2220   -6.9110 C.3     1  UNL1       -0.0415
     52 CL        -16.3420    2.2860   -0.0330 Cl      1  UNL1       -0.0794
     53 O         -18.1810    1.5880    2.1660 O.3     1  UNL1       -0.5052
     54 O         -21.4460   -0.6200   -0.3760 O.3     1  UNL1       -0.5059
@<TRIPOS>BOND
     1    21    40    1
     2     2    39    1
     3    26    51    1
     4    40    39    1
     5    40     8    1
     6    40    41    1
     7    18    51    1
     8    22    41    1
     9    39    38    2
    10     9    41    1
    11    20    37    1
    12    51    16    1
    13    51    50    1
    14    41    42    1
    15    38    37    1
    16    38     1    1
    17    37     7    1
    18    37    36    1
    19    49    50    1
    20    49    47    1
    21    50    15    1
    22    50    25    1
    23    42    23    1
    24    42    10    1
    25    42    43    1
    26    19    36    1
    27    36     6    1
    28    36    35    1
    29    11    43    1
    30    43    47    1
    31    43    44    1
    32    47    13    1
    33    47    48    1
    34    35     5    1
    35    35    33   am
    36    48    14    1
    37    24    45    1
    38    44    45    1
    39    44    46    2
    40    34    33    2
    41    33    32    1
    42    45    12    1
    43    45    31    1
    44    32    31   ar
    45    32    27   ar
    46    31    30   ar
    47     3    54    1
    48    27    54    1
    49    27    28   ar
    50    30    52    1
    51    30    29   ar
    52    28    29   ar
    53    28     4    1
    54    29    53    1
    55    17    53    1
