@<TRIPOS>MOLECULE
10.76689
 54 55 0 0 0
SMALL
GASTEIGER

@<TRIPOS>ATOM
      1 H         -15.8430   -6.1830   -3.2010 H       1  UNL1        0.0569
      2 H         -15.0510   -8.7730   -1.7610 H       1  UNL1        0.0569
      3 H         -20.3670   -3.3000   -0.5070 H       1  UNL1        0.2922
      4 H         -18.8400   -0.1450   -0.4400 H       1  UNL1        0.0691
      5 H         -16.8750   -5.2020   -1.3500 H       1  UNL1        0.1490
      6 H         -19.1380   -7.1170   -1.2130 H       1  UNL1        0.0465
      7 H         -18.0000   -7.1690   -3.3550 H       1  UNL1        0.0322
      8 H         -13.5010   -6.3230   -2.9170 H       1  UNL1        0.0307
      9 H         -11.5980   -7.4740   -1.6020 H       1  UNL1        0.0268
     10 H         -12.4860   -5.2280   -0.9550 H       1  UNL1        0.0274
     11 H         -13.3080   -5.2850    1.4910 H       1  UNL1        0.0427
     12 H         -16.5730   -5.2190    1.4340 H       1  UNL1        0.0391
     13 H         -14.9440   -7.7200    0.6240 H       1  UNL1        0.0914
     14 H         -15.6300   -7.6010    2.6930 H       1  UNL1        0.2125
     15 H         -14.0260   -9.7770    1.1930 H       1  UNL1        0.0558
     16 H         -12.5290  -11.1050    2.6860 H       1  UNL1        0.0252
     17 H         -15.5540    0.4110    0.7070 H       1  UNL1        0.2922
     18 H         -11.8320   -9.5960    3.3240 H       1  UNL1        0.0252
     19 H         -17.6570   -7.5080   -0.3350 H       1  UNL1        0.0465
     20 H         -17.5310   -8.6240   -2.4910 H       1  UNL1        0.0322
     21 H         -13.0760   -7.9960   -3.2280 H       1  UNL1        0.0307
     22 H         -12.8130   -8.2840   -0.6600 H       1  UNL1        0.0268
     23 H         -11.6960   -6.1930    0.2600 H       1  UNL1        0.0274
     24 H         -15.3540   -4.1360    2.0560 H       1  UNL1        0.0391
     25 H         -14.2810   -9.3430    2.9060 H       1  UNL1        0.0558
     26 H         -11.5800  -10.0250    1.6360 H       1  UNL1        0.0252
     27 C         -18.7510   -2.2890   -0.2760 C.ar    1  UNL1        0.1328
     28 C         -18.2360   -1.0050   -0.1630 C.ar    1  UNL1        0.0235
     29 C         -16.9390   -0.8330    0.3030 C.ar    1  UNL1        0.1389
     30 C         -16.1580   -1.9320    0.6950 C.ar    1  UNL1        0.0868
     31 C         -16.6710   -3.2400    0.6120 C.ar    1  UNL1       -0.0028
     32 C         -17.9640   -3.4050    0.0560 C.ar    1  UNL1        0.0832
     33 C         -18.5380   -4.7440   -0.2180 C.2     1  UNL1        0.2479
     34 O         -19.6620   -5.0130    0.1850 O.2     1  UNL1       -0.2701
     35 N         -17.7540   -5.5680   -0.9850 N.am    1  UNL1       -0.3109
     36 C         -18.0520   -6.9690   -1.2040 C.3     1  UNL1        0.0153
     37 C         -17.4320   -7.5320   -2.4890 C.3     1  UNL1       -0.0191
     38 C         -15.9960   -7.1300   -2.6830 C.2     1  UNL1       -0.0865
     39 C         -14.9240   -7.8140   -2.2570 C.2     1  UNL1       -0.0879
     40 C         -13.5190   -7.3270   -2.4780 C.3     1  UNL1       -0.0347
     41 C         -12.6280   -7.3710   -1.2330 C.3     1  UNL1       -0.0488
     42 C         -12.6210   -6.1210   -0.3320 C.3     1  UNL1       -0.0385
     43 C         -13.7610   -5.8930    0.6930 C.3     1  UNL1        0.0685
     44 C         -14.8740   -4.9960    0.1440 C.2     1  UNL1        0.1455
     45 C         -15.8790   -4.4260    1.1390 C.3     1  UNL1        0.0338
     46 O         -14.9730   -4.7310   -1.0580 O.2     1  UNL1       -0.2966
     47 C         -14.3150   -7.1730    1.3350 C.3     1  UNL1        0.1656
     48 O         -15.0970   -6.8210    2.4670 O.3     1  UNL1       -0.3663
     49 O         -13.2190   -7.9630    1.7820 O.3     1  UNL1       -0.3511
     50 C         -13.5710   -9.3110    2.0740 C.3     1  UNL1        0.0478
     51 C         -12.3080  -10.0590    2.4530 C.3     1  UNL1       -0.0415
     52 CL        -14.5570   -1.6240    1.2850 Cl      1  UNL1       -0.0794
     53 O         -16.4710    0.4520    0.3790 O.3     1  UNL1       -0.5052
     54 O         -20.0420   -2.3980   -0.7190 O.3     1  UNL1       -0.5059
@<TRIPOS>BOND
     1     7    37    1
     2    21    40    1
     3     1    38    1
     4     8    40    1
     5    38    37    1
     6    38    39    2
     7    20    37    1
     8    37    36    1
     9    40    39    1
    10    40    41    1
    11    39     2    1
    12     9    41    1
    13     5    35    1
    14    41    22    1
    15    41    42    1
    16     6    36    1
    17    36    35    1
    18    36    19    1
    19    46    44    2
    20    35    33   am
    21    10    42    1
    22    54     3    1
    23    54    27    1
    24     4    28    1
    25    42    23    1
    26    42    43    1
    27    27    28   ar
    28    27    32   ar
    29    33    32    1
    30    33    34    2
    31    28    29   ar
    32    32    31   ar
    33    44    43    1
    34    44    45    1
    35    29    53    1
    36    29    30   ar
    37    53    17    1
    38    31    30   ar
    39    31    45    1
    40    13    47    1
    41    43    47    1
    42    43    11    1
    43    30    52    1
    44    45    12    1
    45    45    24    1
    46    15    50    1
    47    47    49    1
    48    47    48    1
    49    26    51    1
    50    49    50    1
    51    50    51    1
    52    50    25    1
    53    51    16    1
    54    51    18    1
    55    48    14    1
