@<TRIPOS>MOLECULE
11.60026
 54 55 0 0 0
SMALL
GASTEIGER

@<TRIPOS>ATOM
      1 H         -12.4210    7.8550   -6.7710 H       1  UNL1        0.0569
      2 H         -11.5050   10.1270   -8.6230 H       1  UNL1        0.0569
      3 H          -7.5810    5.1040   -7.4820 H       1  UNL1        0.2922
      4 H          -8.4250    2.6350   -5.1440 H       1  UNL1        0.0691
      5 H          -9.3590    7.3670   -8.8700 H       1  UNL1        0.1490
      6 H          -8.7530    7.1170   -6.3210 H       1  UNL1        0.0465
      7 H          -9.6940    9.2320   -7.2680 H       1  UNL1        0.0322
      8 H         -13.5210    9.7610   -9.8050 H       1  UNL1        0.0307
      9 H         -15.3630    8.2420   -9.0740 H       1  UNL1        0.0268
     10 H         -12.6060    7.1370   -9.7390 H       1  UNL1        0.0274
     11 H         -13.8370    5.0290  -10.4190 H       1  UNL1        0.0427
     12 H         -12.7720    3.0260   -9.1420 H       1  UNL1        0.0391
     13 H         -15.7370    5.6480   -8.0980 H       1  UNL1        0.0914
     14 H         -16.4210    3.6740   -8.5310 H       1  UNL1        0.2125
     15 H         -17.8170    6.4800   -8.7230 H       1  UNL1        0.0558
     16 H         -19.5740    6.7120  -10.4810 H       1  UNL1        0.0252
     17 H         -11.4760    0.8810   -5.1210 H       1  UNL1        0.2922
     18 H         -18.4180    6.1370  -11.7070 H       1  UNL1        0.0252
     19 H         -10.3760    6.4110   -6.2450 H       1  UNL1        0.0465
     20 H         -10.3400    8.8580   -5.6680 H       1  UNL1        0.0322
     21 H         -14.1730   10.1440   -8.2190 H       1  UNL1        0.0307
     22 H         -14.3790    7.6570   -7.7510 H       1  UNL1        0.0268
     23 H         -14.0190    7.3150  -10.7560 H       1  UNL1        0.0274
     24 H         -11.7100    4.2330   -9.7880 H       1  UNL1        0.0391
     25 H         -18.1070    4.9220   -9.5460 H       1  UNL1        0.0558
     26 H         -18.1330    7.6720  -10.8950 H       1  UNL1        0.0252
     27 C          -8.9390    3.9180   -6.7960 C.ar    1  UNL1        0.1328
     28 C          -9.1780    2.9010   -5.8800 C.ar    1  UNL1        0.0235
     29 C         -10.3920    2.2280   -5.9140 C.ar    1  UNL1        0.1389
     30 C         -11.3700    2.5440   -6.8700 C.ar    1  UNL1        0.0868
     31 C         -11.1410    3.5570   -7.8220 C.ar    1  UNL1       -0.0028
     32 C          -9.9200    4.2710   -7.7400 C.ar    1  UNL1        0.0832
     33 C          -9.6540    5.3930   -8.6640 C.2     1  UNL1        0.2479
     34 O          -9.4960    5.1740   -9.8590 O.2     1  UNL1       -0.2701
     35 N          -9.5550    6.6650   -8.1650 N.am    1  UNL1       -0.3109
     36 C          -9.7420    7.1180   -6.7890 C.3     1  UNL1        0.0153
     37 C         -10.3320    8.5320   -6.7150 C.3     1  UNL1       -0.0191
     38 C         -11.7430    8.5700   -7.2320 C.2     1  UNL1       -0.0865
     39 C         -12.1870    9.3950   -8.1940 C.2     1  UNL1       -0.0879
     40 C         -13.5820    9.4020   -8.7690 C.3     1  UNL1       -0.0347
     41 C         -14.3250    8.0570   -8.7680 C.3     1  UNL1       -0.0488
     42 C         -13.6990    7.0450   -9.7410 C.3     1  UNL1       -0.0385
     43 C         -14.0610    5.5700   -9.4890 C.3     1  UNL1        0.0685
     44 C         -13.1530    4.9930   -8.4100 C.2     1  UNL1        0.1455
     45 C         -12.1880    3.9080   -8.8600 C.3     1  UNL1        0.0338
     46 O         -13.2160    5.3770   -7.2400 O.2     1  UNL1       -0.2966
     47 C         -15.5120    5.2840   -9.1080 C.3     1  UNL1        0.1656
     48 O         -15.6990    3.8740   -9.1490 O.3     1  UNL1       -0.3663
     49 O         -16.3580    5.9010  -10.0720 O.3     1  UNL1       -0.3511
     50 C         -17.7230    5.9400   -9.6720 C.3     1  UNL1        0.0478
     51 C         -18.5140    6.6560  -10.7480 C.3     1  UNL1       -0.0415
     52 CL        -12.8590    1.6550   -6.8240 Cl      1  UNL1       -0.0794
     53 O         -10.5820    1.2460   -4.9790 O.3     1  UNL1       -0.5052
     54 O          -7.7140    4.5240   -6.7110 O.3     1  UNL1       -0.5059
@<TRIPOS>BOND
     1    18    51    1
     2    26    51    1
     3    23    42    1
     4    51    16    1
     5    51    50    1
     6    11    43    1
     7    49    50    1
     8    49    47    1
     9    34    33    2
    10     8    40    1
    11    24    45    1
    12    42    10    1
    13    42    43    1
    14    42    41    1
    15    50    25    1
    16    50    15    1
    17    43    47    1
    18    43    44    1
    19    48    47    1
    20    48    14    1
    21    12    45    1
    22    47    13    1
    23     9    41    1
    24     5    35    1
    25    45    44    1
    26    45    31    1
    27    40    41    1
    28    40    21    1
    29    40    39    1
    30    41    22    1
    31    33    35   am
    32    33    32    1
    33     2    39    1
    34    44    46    2
    35    39    38    2
    36    35    36    1
    37    31    32   ar
    38    31    30   ar
    39    32    27   ar
    40     3    54    1
    41     7    37    1
    42    38     1    1
    43    38    37    1
    44    30    52    1
    45    30    29   ar
    46    27    54    1
    47    27    28   ar
    48    36    37    1
    49    36     6    1
    50    36    19    1
    51    37    20    1
    52    29    28   ar
    53    29    53    1
    54    28     4    1
    55    17    53    1
