@<TRIPOS>MOLECULE
25.35158
 54 55 0 0 0
SMALL
GASTEIGER

@<TRIPOS>ATOM
      1 H         -10.2610    3.0660   -6.1840 H       1  UNL1        0.0569
      2 H         -12.0890    1.0760   -7.6450 H       1  UNL1        0.0569
      3 H          -7.7540   -1.9560   -5.4370 H       1  UNL1        0.2922
      4 H          -9.7610   -3.3450   -7.9440 H       1  UNL1        0.0691
      5 H          -8.2840    1.0560   -3.9290 H       1  UNL1        0.1490
      6 H          -7.5930    0.3110   -6.4370 H       1  UNL1        0.0465
      7 H          -9.8640    0.2480   -7.3930 H       1  UNL1        0.0322
      8 H         -13.2580    3.2840   -7.8490 H       1  UNL1        0.0307
      9 H         -14.3100    1.3350   -6.3980 H       1  UNL1        0.0268
     10 H         -15.0600    2.9990   -4.3060 H       1  UNL1        0.0274
     11 H         -14.5920    0.4870   -4.2300 H       1  UNL1        0.0427
     12 H         -11.7290   -1.0130   -2.9550 H       1  UNL1        0.0391
     13 H         -13.4930    2.1180   -1.8610 H       1  UNL1        0.0914
     14 H         -13.9140    0.3390   -0.7380 H       1  UNL1        0.2125
     15 H         -15.1300    3.2520   -0.6500 H       1  UNL1        0.0558
     16 H         -17.5000    3.3390    0.1330 H       1  UNL1        0.0252
     17 H         -13.2780   -3.2150   -7.9600 H       1  UNL1        0.2922
     18 H         -17.9430    2.1180   -1.0840 H       1  UNL1        0.0252
     19 H          -7.8210    1.9610   -5.8860 H       1  UNL1        0.0465
     20 H          -8.9550    1.6110   -7.9820 H       1  UNL1        0.0322
     21 H         -12.5570    3.8630   -6.3510 H       1  UNL1        0.0307
     22 H         -15.0140    2.9340   -6.4780 H       1  UNL1        0.0268
     23 H         -13.3370    3.2910   -4.2990 H       1  UNL1        0.0274
     24 H         -13.2370   -1.2650   -3.7120 H       1  UNL1        0.0391
     25 H         -15.6900    1.6410   -0.1200 H       1  UNL1        0.0558
     26 H         -17.3940    3.7060   -1.6060 H       1  UNL1        0.0252
     27 C          -9.5180   -2.1230   -6.1880 C.ar    1  UNL1        0.1328
     28 C         -10.2580   -2.7800   -7.1620 C.ar    1  UNL1        0.0235
     29 C         -11.6440   -2.6970   -7.1290 C.ar    1  UNL1        0.1389
     30 C         -12.3070   -2.0060   -6.1020 C.ar    1  UNL1        0.0868
     31 C         -11.5780   -1.3660   -5.0820 C.ar    1  UNL1       -0.0028
     32 C         -10.1640   -1.3690   -5.1940 C.ar    1  UNL1        0.0832
     33 C          -9.3610   -0.5690   -4.2560 C.2     1  UNL1        0.2479
     34 O          -9.3090   -0.9040   -3.0770 O.2     1  UNL1       -0.2701
     35 N          -8.6830    0.5340   -4.7000 N.am    1  UNL1       -0.3109
     36 C          -8.3400    1.0060   -6.0370 C.3     1  UNL1        0.0153
     37 C          -9.4430    1.2070   -7.0850 C.3     1  UNL1       -0.0191
     38 C         -10.5420    2.1620   -6.7210 C.2     1  UNL1       -0.0865
     39 C         -11.8210    1.9690   -7.0820 C.2     1  UNL1       -0.0879
     40 C         -12.9240    2.9610   -6.8540 C.3     1  UNL1       -0.0347
     41 C         -14.1360    2.3800   -6.1180 C.3     1  UNL1       -0.0488
     42 C         -14.0970    2.5570   -4.5910 C.3     1  UNL1       -0.0385
     43 C         -13.9150    1.2400   -3.8100 C.3     1  UNL1        0.0685
     44 C         -12.4840    0.7330   -3.8970 C.2     1  UNL1        0.1455
     45 C         -12.2750   -0.7690   -3.8730 C.3     1  UNL1        0.0338
     46 O         -11.5360    1.5200   -3.8630 O.2     1  UNL1       -0.2966
     47 C         -14.2150    1.4250   -2.3120 C.3     1  UNL1        0.1656
     48 O         -14.1200    0.1600   -1.6700 O.3     1  UNL1       -0.3663
     49 O         -15.5450    1.9110   -2.1700 O.3     1  UNL1       -0.3511
     50 C         -15.8160    2.4270   -0.8720 C.3     1  UNL1        0.0478
     51 C         -17.2460    2.9290   -0.8490 C.3     1  UNL1       -0.0415
     52 CL        -14.0390   -1.9730   -6.1480 Cl      1  UNL1       -0.0794
     53 O         -12.3260   -3.3370   -8.1300 O.3     1  UNL1       -0.5052
     54 O          -8.1590   -2.2590   -6.2710 O.3     1  UNL1       -0.5059
@<TRIPOS>BOND
     1    53    17    1
     2    53    29    1
     3    20    37    1
     4     4    28    1
     5     8    40    1
     6     2    39    1
     7     7    37    1
     8    28    29   ar
     9    28    27   ar
    10    29    30   ar
    11    37    38    1
    12    37    36    1
    13    39    40    1
    14    39    38    2
    15    40    21    1
    16    40    41    1
    17    38     1    1
    18    22    41    1
    19     6    36    1
    20     9    41    1
    21    54    27    1
    22    54     3    1
    23    27    32   ar
    24    52    30    1
    25    41    42    1
    26    30    31   ar
    27    36    19    1
    28    36    35    1
    29    32    31   ar
    30    32    33    1
    31    31    45    1
    32    35    33   am
    33    35     5    1
    34    42    10    1
    35    42    23    1
    36    42    43    1
    37    33    34    2
    38    11    43    1
    39    44    45    1
    40    44    46    2
    41    44    43    1
    42    45    24    1
    43    45    12    1
    44    43    47    1
    45    47    49    1
    46    47    13    1
    47    47    48    1
    48    49    50    1
    49    48    14    1
    50    26    51    1
    51    18    51    1
    52    50    51    1
    53    50    15    1
    54    50    25    1
    55    51    16    1
