@<TRIPOS>MOLECULE
16.03099
 54 55 0 0 0
SMALL
GASTEIGER

@<TRIPOS>ATOM
      1 H         -19.8510    0.8060   -8.7700 H       1  UNL1        0.0569
      2 H         -17.5720    0.0550  -10.6890 H       1  UNL1        0.0569
      3 H         -18.6010   -0.3490   -3.3230 H       1  UNL1        0.2922
      4 H         -16.8900   -3.2170   -2.3040 H       1  UNL1        0.0691
      5 H         -16.5300    0.0990   -6.8090 H       1  UNL1        0.1490
      6 H         -17.1680    2.4720   -6.6440 H       1  UNL1        0.0465
      7 H         -16.8550    1.5820   -8.9350 H       1  UNL1        0.0322
      8 H         -19.7400   -0.4650  -11.9100 H       1  UNL1        0.0307
      9 H         -18.0430   -2.4450  -10.8210 H       1  UNL1        0.0268
     10 H         -20.1420   -4.1930  -10.9040 H       1  UNL1        0.0274
     11 H         -18.3360   -4.3450   -9.2460 H       1  UNL1        0.0427
     12 H         -16.8930   -3.0840   -8.2510 H       1  UNL1        0.0391
     13 H         -21.0820   -4.4010   -7.8670 H       1  UNL1        0.0914
     14 H         -20.0770   -5.6120   -6.4390 H       1  UNL1        0.2125
     15 H         -22.4050   -6.2200   -8.4560 H       1  UNL1        0.0558
     16 H         -22.5420   -8.5540   -9.3320 H       1  UNL1        0.0252
     17 H         -15.7810   -5.7150   -4.5250 H       1  UNL1        0.2922
     18 H         -20.8440   -8.4520   -9.8580 H       1  UNL1        0.0252
     19 H         -18.8660    1.9760   -6.6460 H       1  UNL1        0.0465
     20 H         -18.1380    2.7930   -8.8790 H       1  UNL1        0.0322
     21 H         -20.5440   -0.8070  -10.3920 H       1  UNL1        0.0307
     22 H         -19.2210   -2.5930  -12.1050 H       1  UNL1        0.0268
     23 H         -20.9440   -2.9180  -10.0120 H       1  UNL1        0.0274
     24 H         -17.2970   -1.4490   -8.0200 H       1  UNL1        0.0391
     25 H         -21.1800   -7.2650   -7.6860 H       1  UNL1        0.0558
     26 H         -22.0530   -7.4230  -10.6170 H       1  UNL1        0.0252
     27 C         -17.5400   -1.8600   -3.8430 C.ar    1  UNL1        0.1328
     28 C         -16.9780   -3.0390   -3.3710 C.ar    1  UNL1        0.0235
     29 C         -16.5420   -3.9870   -4.2830 C.ar    1  UNL1        0.1389
     30 C         -16.6790   -3.7800   -5.6650 C.ar    1  UNL1        0.0868
     31 C         -17.2510   -2.5900   -6.1690 C.ar    1  UNL1       -0.0028
     32 C         -17.6430   -1.6050   -5.2250 C.ar    1  UNL1        0.0832
     33 C         -18.1730   -0.2680   -5.6050 C.2     1  UNL1        0.2479
     34 O         -19.1390    0.1820   -4.9960 O.2     1  UNL1       -0.2701
     35 N         -17.4380    0.4410   -6.5240 N.am    1  UNL1       -0.3109
     36 C         -17.8720    1.7280   -7.0330 C.3     1  UNL1        0.0153
     37 C         -17.8700    1.7770   -8.5660 C.3     1  UNL1       -0.0191
     38 C         -18.8480    0.8200   -9.1970 C.2     1  UNL1       -0.0865
     39 C         -18.5630    0.0240  -10.2420 C.2     1  UNL1       -0.0879
     40 C         -19.5760   -0.8700  -10.9020 C.3     1  UNL1       -0.0347
     41 C         -19.1100   -2.3280  -11.0440 C.3     1  UNL1       -0.0488
     42 C         -19.9560   -3.3350  -10.2450 C.3     1  UNL1       -0.0385
     43 C         -19.2790   -3.8590   -8.9670 C.3     1  UNL1        0.0685
     44 C         -18.9970   -2.7290   -7.9950 C.2     1  UNL1        0.1455
     45 C         -17.5430   -2.4430   -7.6500 C.3     1  UNL1        0.0338
     46 O         -19.9200   -2.0740   -7.5060 O.2     1  UNL1       -0.2966
     47 C         -20.1590   -4.8760   -8.2260 C.3     1  UNL1        0.1656
     48 O         -19.4240   -5.3820   -7.1200 O.3     1  UNL1       -0.3663
     49 O         -20.4630   -5.9460   -9.1160 O.3     1  UNL1       -0.3511
     50 C         -21.4920   -6.7990   -8.6270 C.3     1  UNL1        0.0478
     51 C         -21.7530   -7.8730   -9.6650 C.3     1  UNL1       -0.0415
     52 CL        -16.0990   -5.0380   -6.7130 Cl      1  UNL1       -0.0794
     53 O         -15.9930   -5.1330   -3.7710 O.3     1  UNL1       -0.5052
     54 O         -17.9830   -0.9790   -2.8890 O.3     1  UNL1       -0.5059
@<TRIPOS>BOND
     1    22    41    1
     2     8    40    1
     3    41    40    1
     4    41     9    1
     5    41    42    1
     6    10    42    1
     7    40    21    1
     8    40    39    1
     9     2    39    1
    10    26    51    1
    11    42    23    1
    12    42    43    1
    13    39    38    2
    14    18    51    1
    15    51    16    1
    16    51    50    1
    17    11    43    1
    18    38     1    1
    19    38    37    1
    20    49    50    1
    21    49    47    1
    22    43    47    1
    23    43    44    1
    24     7    37    1
    25    20    37    1
    26    50    15    1
    27    50    25    1
    28    37    36    1
    29    12    45    1
    30    47    13    1
    31    47    48    1
    32    24    45    1
    33    44    45    1
    34    44    46    2
    35    45    31    1
    36    48    14    1
    37    36    19    1
    38    36     6    1
    39    36    35    1
    40     5    35    1
    41    52    30    1
    42    35    33   am
    43    31    30   ar
    44    31    32   ar
    45    30    29   ar
    46    33    32    1
    47    33    34    2
    48    32    27   ar
    49    17    53    1
    50    29    53    1
    51    29    28   ar
    52    27    28   ar
    53    27    54    1
    54    28     4    1
    55     3    54    1
