@<TRIPOS>MOLECULE
17.60594
 54 55 0 0 0
SMALL
GASTEIGER

@<TRIPOS>ATOM
      1 H         -16.0100   -0.4680   -5.8910 H       1  UNL1        0.0569
      2 H         -14.2770   -1.5530   -8.1850 H       1  UNL1        0.0569
      3 H         -18.9810   -5.5130   -6.8710 H       1  UNL1        0.2922
      4 H         -21.2520   -5.0320   -4.2500 H       1  UNL1        0.0691
      5 H         -16.2730   -3.8490   -7.6550 H       1  UNL1        0.1490
      6 H         -18.0770   -2.1480   -6.0090 H       1  UNL1        0.0465
      7 H         -17.6180   -0.4440   -7.8030 H       1  UNL1        0.0322
      8 H         -13.1730    0.2370   -6.1800 H       1  UNL1        0.0307
      9 H         -12.3070   -1.9000   -4.7500 H       1  UNL1        0.0268
     10 H         -14.6370   -0.0660   -4.2240 H       1  UNL1        0.0274
     11 H         -14.8580   -0.8600   -1.9440 H       1  UNL1        0.0427
     12 H         -15.3960   -4.0590   -4.0780 H       1  UNL1        0.0391
     13 H         -12.6980   -1.9770   -1.6830 H       1  UNL1        0.0914
     14 H         -12.3030   -3.8870   -2.5370 H       1  UNL1        0.2125
     15 H         -12.5760   -3.0600    0.4000 H       1  UNL1        0.0558
     16 H         -13.5720   -4.7170    1.9850 H       1  UNL1        0.0252
     17 H         -20.3480   -3.9600   -1.0200 H       1  UNL1        0.2922
     18 H         -15.0120   -4.8390    0.9450 H       1  UNL1        0.0252
     19 H         -18.6320   -2.6880   -7.6010 H       1  UNL1        0.0465
     20 H         -16.6510   -1.6240   -8.6860 H       1  UNL1        0.0322
     21 H         -12.4140   -1.1720   -6.8960 H       1  UNL1        0.0307
     22 H         -13.8920   -2.5480   -5.1460 H       1  UNL1        0.0268
     23 H         -13.0880   -0.1770   -3.4350 H       1  UNL1        0.0274
     24 H         -15.7430   -4.1990   -2.3690 H       1  UNL1        0.0391
     25 H         -12.9390   -4.6010   -0.4250 H       1  UNL1        0.0558
     26 H         -14.6570   -3.3230    1.7640 H       1  UNL1        0.0252
     27 C         -19.2720   -4.8610   -5.0800 C.ar    1  UNL1        0.1328
     28 C         -20.2140   -4.7720   -4.0630 C.ar    1  UNL1        0.0235
     29 C         -19.8120   -4.3580   -2.8000 C.ar    1  UNL1        0.1389
     30 C         -18.4730   -4.0290   -2.5370 C.ar    1  UNL1        0.0868
     31 C         -17.5020   -4.1030   -3.5560 C.ar    1  UNL1       -0.0028
     32 C         -17.9320   -4.5130   -4.8390 C.ar    1  UNL1        0.0832
     33 C         -16.9670   -4.6300   -5.9460 C.2     1  UNL1        0.2479
     34 O         -16.2300   -5.6080   -6.0010 O.2     1  UNL1       -0.2701
     35 N         -16.9540   -3.6750   -6.9240 N.am    1  UNL1       -0.3109
     36 C         -17.7440   -2.4500   -7.0060 C.3     1  UNL1        0.0153
     37 C         -16.9630   -1.3140   -7.6810 C.3     1  UNL1       -0.0191
     38 C         -15.7730   -0.9080   -6.8570 C.2     1  UNL1       -0.0865
     39 C         -14.4940   -1.1080   -7.2150 C.2     1  UNL1       -0.0879
     40 C         -13.2990   -0.8400   -6.3380 C.3     1  UNL1       -0.0347
     41 C         -13.3340   -1.6150   -5.0110 C.3     1  UNL1       -0.0488
     42 C         -13.9010   -0.7870   -3.8500 C.3     1  UNL1       -0.0385
     43 C         -14.5480   -1.5940   -2.7050 C.3     1  UNL1        0.0685
     44 C         -15.8800   -2.1910   -3.1760 C.2     1  UNL1        0.1455
     45 C         -16.0600   -3.7010   -3.2880 C.3     1  UNL1        0.0338
     46 O         -16.7840   -1.4180   -3.5270 O.2     1  UNL1       -0.2966
     47 C         -13.5870   -2.5450   -1.9850 C.3     1  UNL1        0.1656
     48 O         -13.1840   -3.6040   -2.8300 O.3     1  UNL1       -0.3663
     49 O         -14.2440   -3.0410   -0.8250 O.3     1  UNL1       -0.3511
     50 C         -13.3780   -3.7290    0.0710 C.3     1  UNL1        0.0478
     51 C         -14.1960   -4.1820    1.2640 C.3     1  UNL1       -0.0415
     52 CL        -18.0620   -3.5400   -0.9240 Cl      1  UNL1       -0.0794
     53 O         -20.7780   -4.2900   -1.8310 O.3     1  UNL1       -0.5052
     54 O         -19.7350   -5.3030   -6.2910 O.3     1  UNL1       -0.5059
@<TRIPOS>BOND
     1    20    37    1
     2     2    39    1
     3     7    37    1
     4    37    36    1
     5    37    38    1
     6     5    35    1
     7    19    36    1
     8    39    38    2
     9    39    40    1
    10    36    35    1
    11    36     6    1
    12    35    33   am
    13    21    40    1
    14     3    54    1
    15    38     1    1
    16    40     8    1
    17    40    41    1
    18    54    27    1
    19    34    33    2
    20    33    32    1
    21    22    41    1
    22    27    32   ar
    23    27    28   ar
    24    41     9    1
    25    41    42    1
    26    32    31   ar
    27     4    28    1
    28    10    42    1
    29    12    45    1
    30    28    29   ar
    31    42    23    1
    32    42    43    1
    33    31    45    1
    34    31    30   ar
    35    46    44    2
    36    45    44    1
    37    45    24    1
    38    44    43    1
    39    48    14    1
    40    48    47    1
    41    29    30   ar
    42    29    53    1
    43    43    47    1
    44    43    11    1
    45    30    52    1
    46    47    13    1
    47    47    49    1
    48    53    17    1
    49    49    50    1
    50    25    50    1
    51    50    15    1
    52    50    51    1
    53    18    51    1
    54    51    26    1
    55    51    16    1
