@<TRIPOS>MOLECULE
17.88257
 54 55 0 0 0
SMALL
GASTEIGER

@<TRIPOS>ATOM
      1 H         -12.7190   -1.5090   -3.8690 H       1  UNL1        0.0569
      2 H         -12.4710   -4.5050   -3.2220 H       1  UNL1        0.0569
      3 H          -8.9110   -2.5460    1.6900 H       1  UNL1        0.2922
      4 H          -7.7840    0.7310    1.8550 H       1  UNL1        0.0691
      5 H         -11.6530   -3.7300   -0.5410 H       1  UNL1        0.1490
      6 H         -11.9630   -0.8250   -1.2100 H       1  UNL1        0.0465
      7 H         -14.2670   -1.5820   -1.9740 H       1  UNL1        0.0322
      8 H         -11.6770   -2.7550   -5.6520 H       1  UNL1        0.0307
      9 H         -10.0010   -5.1240   -5.0310 H       1  UNL1        0.0268
     10 H          -9.3410   -3.4270   -6.6920 H       1  UNL1        0.0274
     11 H         -10.0350   -1.3170   -5.4580 H       1  UNL1        0.0427
     12 H         -10.2620   -0.2380   -3.4190 H       1  UNL1        0.0391
     13 H          -7.0290   -1.2950   -6.0330 H       1  UNL1        0.0914
     14 H          -7.3760    0.7930   -6.1590 H       1  UNL1        0.2125
     15 H          -6.4470   -1.3510   -8.2870 H       1  UNL1        0.0558
     16 H          -7.1090   -0.9510  -10.6620 H       1  UNL1        0.0252
     17 H          -7.3810    2.7820   -0.9810 H       1  UNL1        0.2922
     18 H          -8.8100   -0.8070  -10.1590 H       1  UNL1        0.0252
     19 H         -12.8900   -1.6150    0.0640 H       1  UNL1        0.0465
     20 H         -13.8430   -3.2460   -1.5850 H       1  UNL1        0.0322
     21 H         -12.0560   -4.4630   -5.7090 H       1  UNL1        0.0307
     22 H          -9.8840   -3.9590   -3.7370 H       1  UNL1        0.0268
     23 H          -8.1180   -3.7130   -5.4620 H       1  UNL1        0.0274
     24 H         -10.3310   -1.8730   -2.8090 H       1  UNL1        0.0391
     25 H          -7.2870    0.2140   -8.4630 H       1  UNL1        0.0558
     26 H          -7.9810   -2.3490   -9.9880 H       1  UNL1        0.0252
     27 C          -8.8110   -0.8470    0.8100 C.ar    1  UNL1        0.1328
     28 C          -8.1880    0.3900    0.9060 C.ar    1  UNL1        0.0235
     29 C          -8.0630    1.1690   -0.2340 C.ar    1  UNL1        0.1389
     30 C          -8.5470    0.7210   -1.4720 C.ar    1  UNL1        0.0868
     31 C          -9.1980   -0.5260   -1.5870 C.ar    1  UNL1       -0.0028
     32 C          -9.3600   -1.2920   -0.4080 C.ar    1  UNL1        0.0832
     33 C         -10.0210   -2.6140   -0.3740 C.2     1  UNL1        0.2479
     34 O          -9.3680   -3.5760    0.0270 O.2     1  UNL1       -0.2701
     35 N         -11.3500   -2.7690   -0.6590 N.am    1  UNL1       -0.3109
     36 C         -12.3950   -1.7790   -0.9000 C.3     1  UNL1        0.0153
     37 C         -13.4290   -2.2870   -1.9220 C.3     1  UNL1       -0.0191
     38 C         -12.8370   -2.4290   -3.2990 C.2     1  UNL1       -0.0865
     39 C         -12.3720   -3.5860   -3.7980 C.2     1  UNL1       -0.0879
     40 C         -11.5980   -3.6880   -5.0840 C.3     1  UNL1       -0.0347
     41 C         -10.1310   -4.0580   -4.8010 C.3     1  UNL1       -0.0488
     42 C          -9.1070   -3.2690   -5.6320 C.3     1  UNL1       -0.0385
     43 C          -9.0410   -1.7600   -5.3240 C.3     1  UNL1        0.0685
     44 C          -8.5910   -1.5020   -3.8870 C.2     1  UNL1        0.1455
     45 C          -9.6710   -1.0230   -2.9340 C.3     1  UNL1        0.0338
     46 O          -7.4360   -1.7270   -3.5230 O.2     1  UNL1       -0.2966
     47 C          -8.0680   -1.0120   -6.2460 C.3     1  UNL1        0.1656
     48 O          -8.2440    0.3810   -6.0200 O.3     1  UNL1       -0.3663
     49 O          -8.3990   -1.3080   -7.5990 O.3     1  UNL1       -0.3511
     50 C          -7.4040   -0.8730   -8.5200 C.3     1  UNL1        0.0478
     51 C          -7.8460   -1.2650   -9.9170 C.3     1  UNL1       -0.0415
     52 CL         -8.3330    1.7610   -2.8440 Cl      1  UNL1       -0.0794
     53 O          -7.4370    2.3790   -0.0940 O.3     1  UNL1       -0.5052
     54 O          -8.8410   -1.6030    1.9540 O.3     1  UNL1       -0.5059
@<TRIPOS>BOND
     1    16    51    1
     2    18    51    1
     3    26    51    1
     4    51    50    1
     5    50    25    1
     6    50    15    1
     7    50    49    1
     8    49    47    1
     9    10    42    1
    10    47    13    1
    11    47    48    1
    12    47    43    1
    13    14    48    1
    14    21    40    1
    15     8    40    1
    16    42    23    1
    17    42    43    1
    18    42    41    1
    19    11    43    1
    20    43    44    1
    21    40    41    1
    22    40    39    1
    23     9    41    1
    24    41    22    1
    25    44    46    2
    26    44    45    1
    27     1    38    1
    28    39    38    2
    29    39     2    1
    30    12    45    1
    31    38    37    1
    32    45    24    1
    33    45    31    1
    34    52    30    1
    35     7    37    1
    36    37    20    1
    37    37    36    1
    38    31    30   ar
    39    31    32   ar
    40    30    29   ar
    41     6    36    1
    42    17    53    1
    43    36    35    1
    44    36    19    1
    45    35     5    1
    46    35    33   am
    47    32    33    1
    48    32    27   ar
    49    33    34    2
    50    29    53    1
    51    29    28   ar
    52    27    28   ar
    53    27    54    1
    54    28     4    1
    55     3    54    1
