@<TRIPOS>MOLECULE
11.69937
 54 55 0 0 0
SMALL
GASTEIGER

@<TRIPOS>ATOM
      1 H         -14.5760   -1.6690   -5.5480 H       1  UNL1        0.0569
      2 H         -16.7810   -0.9990   -7.5820 H       1  UNL1        0.0569
      3 H         -19.5830   -3.2610   -1.2070 H       1  UNL1        0.2922
      4 H         -22.3660   -1.1370   -1.0930 H       1  UNL1        0.0691
      5 H         -18.0200   -1.4880   -4.5420 H       1  UNL1        0.1490
      6 H         -17.1210   -4.0910   -4.0620 H       1  UNL1        0.0465
      7 H         -17.2490   -3.0290   -6.3470 H       1  UNL1        0.0322
      8 H         -14.4500    0.0270   -8.2980 H       1  UNL1        0.0307
      9 H         -16.1420    1.5600   -8.6580 H       1  UNL1        0.0268
     10 H         -17.7640    1.6540   -7.0460 H       1  UNL1        0.0274
     11 H         -17.1950    3.0070   -4.8260 H       1  UNL1        0.0427
     12 H         -16.8780    0.3180   -2.6760 H       1  UNL1        0.0391
     13 H         -14.8620    1.0530   -4.6520 H       1  UNL1        0.0914
     14 H         -14.5000    2.1680   -2.8270 H       1  UNL1        0.2125
     15 H         -12.7530    1.8780   -5.2240 H       1  UNL1        0.0558
     16 H         -11.2840    3.8220   -5.7680 H       1  UNL1        0.0252
     17 H         -22.2910    2.2430   -2.0890 H       1  UNL1        0.2922
     18 H         -12.7070    4.8920   -5.7720 H       1  UNL1        0.0252
     19 H         -15.7730   -3.0290   -3.6410 H       1  UNL1        0.0465
     20 H         -15.7370   -3.8810   -6.0390 H       1  UNL1        0.0322
     21 H         -14.2130    0.4420   -6.6260 H       1  UNL1        0.0307
     22 H         -14.9410    2.3980   -7.7300 H       1  UNL1        0.0268
     23 H         -16.9670    3.1830   -6.9930 H       1  UNL1        0.0274
     24 H         -17.6270    1.8960   -2.6350 H       1  UNL1        0.0391
     25 H         -12.8960    3.1550   -3.9870 H       1  UNL1        0.0558
     26 H         -12.5620    3.6330   -6.9920 H       1  UNL1        0.0252
     27 C         -20.3440   -1.5660   -1.6940 C.ar    1  UNL1        0.1328
     28 C         -21.4500   -0.7440   -1.5250 C.ar    1  UNL1        0.0235
     29 C         -21.3720    0.5830   -1.9220 C.ar    1  UNL1        0.1389
     30 C         -20.1840    1.1090   -2.4530 C.ar    1  UNL1        0.0868
     31 C         -19.0400    0.2980   -2.6030 C.ar    1  UNL1       -0.0028
     32 C         -19.1610   -1.0730   -2.2760 C.ar    1  UNL1        0.0832
     33 C         -18.0920   -2.0650   -2.5460 C.2     1  UNL1        0.2479
     34 O         -17.7760   -2.8570   -1.6650 O.2     1  UNL1       -0.2701
     35 N         -17.6140   -2.1020   -3.8320 N.am    1  UNL1       -0.3109
     36 C         -16.6710   -3.1120   -4.2650 C.3     1  UNL1        0.0153
     37 C         -16.3280   -3.0020   -5.7530 C.3     1  UNL1       -0.0191
     38 C         -15.5160   -1.7770   -6.0840 C.2     1  UNL1       -0.0865
     39 C         -15.8570   -0.8750   -7.0200 C.2     1  UNL1       -0.0879
     40 C         -14.9920    0.2930   -7.3800 C.3     1  UNL1       -0.0347
     41 C         -15.7090    1.6180   -7.6490 C.3     1  UNL1       -0.0488
     42 C         -16.8270    2.1250   -6.7230 C.3     1  UNL1       -0.0385
     43 C         -16.7090    2.0830   -5.1770 C.3     1  UNL1        0.0685
     44 C         -17.5920    0.9750   -4.5810 C.2     1  UNL1        0.1455
     45 C         -17.7230    0.8950   -3.0670 C.3     1  UNL1        0.0338
     46 O         -18.2090    0.1700   -5.2880 O.2     1  UNL1       -0.2966
     47 C         -15.2860    2.0610   -4.5980 C.3     1  UNL1        0.1656
     48 O         -15.3390    2.4430   -3.2300 O.3     1  UNL1       -0.3663
     49 O         -14.4910    3.0060   -5.2990 O.3     1  UNL1       -0.3511
     50 C         -13.0970    2.9000   -5.0320 C.3     1  UNL1        0.0478
     51 C         -12.3630    3.8660   -5.9410 C.3     1  UNL1       -0.0415
     52 CL        -20.1760    2.7820   -2.9140 Cl      1  UNL1       -0.0794
     53 O         -22.4950    1.3490   -1.7570 O.3     1  UNL1       -0.5052
     54 O         -20.4780   -2.8620   -1.2670 O.3     1  UNL1       -0.5059
@<TRIPOS>BOND
     1     9    41    1
     2     8    40    1
     3    22    41    1
     4    41    40    1
     5    41    42    1
     6     2    39    1
     7    40    39    1
     8    40    21    1
     9    10    42    1
    10    39    38    2
    11    23    42    1
    12    26    51    1
    13    42    43    1
    14     7    37    1
    15    38    37    1
    16    38     1    1
    17    20    37    1
    18    51    18    1
    19    51    16    1
    20    51    50    1
    21    37    36    1
    22    49    50    1
    23    49    47    1
    24    46    44    2
    25    15    50    1
    26    43    11    1
    27    43    47    1
    28    43    44    1
    29    50    25    1
    30    13    47    1
    31    47    48    1
    32    44    45    1
    33     5    35    1
    34    36     6    1
    35    36    35    1
    36    36    19    1
    37    35    33   am
    38    48    14    1
    39    45    12    1
    40    45    24    1
    41    45    31    1
    42    52    30    1
    43    31    30   ar
    44    31    32   ar
    45    33    32    1
    46    33    34    2
    47    30    29   ar
    48    32    27   ar
    49    17    53    1
    50    29    53    1
    51    29    28   ar
    52    27    28   ar
    53    27    54    1
    54    28     4    1
    55    54     3    1
