@<TRIPOS>MOLECULE
8.81389
 54 55 0 0 0
SMALL
GASTEIGER

@<TRIPOS>ATOM
      1 H         -18.0080    0.4940   -4.9230 H       1  UNL1        0.0569
      2 H         -15.0340    1.0800   -4.4270 H       1  UNL1        0.0569
      3 H         -18.5090    5.5820   -8.8490 H       1  UNL1        0.2922
      4 H         -16.5840    8.4900   -8.6510 H       1  UNL1        0.0691
      5 H         -16.0490    3.3820   -6.4860 H       1  UNL1        0.1490
      6 H         -17.2370    1.9420   -8.3670 H       1  UNL1        0.0465
      7 H         -15.5620    0.9550   -6.7790 H       1  UNL1        0.0322
      8 H         -15.5850    0.6800   -2.1090 H       1  UNL1        0.0307
      9 H         -17.8140    1.9830   -1.4980 H       1  UNL1        0.0268
     10 H         -15.7710    2.9980   -0.8940 H       1  UNL1        0.0274
     11 H         -14.3990    2.8530   -2.9540 H       1  UNL1        0.0427
     12 H         -17.5340    4.5950   -4.3280 H       1  UNL1        0.0391
     13 H         -13.6650    4.2930   -1.2110 H       1  UNL1        0.0914
     14 H         -14.4240    6.2860   -0.9050 H       1  UNL1        0.2125
     15 H         -11.6010    5.3200   -1.5990 H       1  UNL1        0.0558
     16 H         -10.2410    6.8820   -2.9960 H       1  UNL1        0.0252
     17 H         -14.8200    9.4670   -5.7660 H       1  UNL1        0.2922
     18 H         -11.5470    6.9320   -4.2050 H       1  UNL1        0.0252
     19 H         -18.4940    1.8310   -7.1320 H       1  UNL1        0.0465
     20 H         -16.9040   -0.1370   -7.1210 H       1  UNL1        0.0322
     21 H         -17.1630    0.0580   -2.5540 H       1  UNL1        0.0307
     22 H         -17.7730    2.5750   -3.1400 H       1  UNL1        0.0268
     23 H         -16.8250    4.1860   -1.6290 H       1  UNL1        0.0274
     24 H         -16.6970    5.8160   -3.4230 H       1  UNL1        0.0391
     25 H         -12.4760    6.8490   -1.8890 H       1  UNL1        0.0558
     26 H         -10.6810    5.4260   -3.9210 H       1  UNL1        0.0252
     27 C         -17.2090    6.5900   -7.8570 C.ar    1  UNL1        0.1328
     28 C         -16.5610    7.8140   -7.8010 C.ar    1  UNL1        0.0235
     29 C         -15.8880    8.1610   -6.6420 C.ar    1  UNL1        0.1389
     30 C         -15.8790    7.3090   -5.5250 C.ar    1  UNL1        0.0868
     31 C         -16.5420    6.0610   -5.5540 C.ar    1  UNL1       -0.0028
     32 C         -17.1670    5.6900   -6.7700 C.ar    1  UNL1        0.0832
     33 C         -17.7970    4.3690   -7.0140 C.2     1  UNL1        0.2479
     34 O         -18.9160    4.3370   -7.5200 O.2     1  UNL1       -0.2701
     35 N         -17.0120    3.2630   -6.8090 N.am    1  UNL1       -0.3109
     36 C         -17.4150    1.9510   -7.2860 C.3     1  UNL1        0.0153
     37 C         -16.6380    0.8070   -6.6300 C.3     1  UNL1       -0.0191
     38 C         -16.9650    0.6880   -5.1690 C.2     1  UNL1       -0.0865
     39 C         -16.0740    0.8730   -4.1830 C.2     1  UNL1       -0.0879
     40 C         -16.4610    0.8830   -2.7340 C.3     1  UNL1       -0.0347
     41 C         -17.1330    2.2000   -2.3320 C.3     1  UNL1       -0.0488
     42 C         -16.1960    3.3160   -1.8560 C.3     1  UNL1       -0.0385
     43 C         -15.0330    3.7310   -2.7740 C.3     1  UNL1        0.0685
     44 C         -15.4440    4.2250   -4.1650 C.2     1  UNL1        0.1455
     45 C         -16.6120    5.1860   -4.3120 C.3     1  UNL1        0.0338
     46 O         -14.8570    3.7970   -5.1700 O.2     1  UNL1       -0.2966
     47 C         -14.1360    4.7740   -2.0790 C.3     1  UNL1        0.1656
     48 O         -14.9260    5.8540   -1.6140 O.3     1  UNL1       -0.3663
     49 O         -13.1370    5.2170   -2.9810 O.3     1  UNL1       -0.3511
     50 C         -12.0830    5.9430   -2.3610 C.3     1  UNL1        0.0478
     51 C         -11.0750    6.3210   -3.4280 C.3     1  UNL1       -0.0415
     52 CL        -15.0450    7.8780   -4.1170 Cl      1  UNL1       -0.0794
     53 O         -15.2550    9.3760   -6.6340 O.3     1  UNL1       -0.5052
     54 O         -17.8850    6.3210   -9.0220 O.3     1  UNL1       -0.5059
@<TRIPOS>BOND
     1    54     3    1
     2    54    27    1
     3     4    28    1
     4     6    36    1
     5    27    28   ar
     6    27    32   ar
     7    28    29   ar
     8    34    33    2
     9    36    19    1
    10    36    35    1
    11    36    37    1
    12    20    37    1
    13    33    35   am
    14    33    32    1
    15    35     5    1
    16     7    37    1
    17    32    31   ar
    18    29    53    1
    19    29    30   ar
    20    53    17    1
    21    37    38    1
    22    31    30   ar
    23    31    45    1
    24    30    52    1
    25    46    44    2
    26    38     1    1
    27    38    39    2
    28     2    39    1
    29    12    45    1
    30    45    44    1
    31    45    24    1
    32    18    51    1
    33    39    40    1
    34    44    43    1
    35    26    51    1
    36    51    16    1
    37    51    50    1
    38    22    41    1
    39    49    50    1
    40    49    47    1
    41    11    43    1
    42    43    47    1
    43    43    42    1
    44    40    21    1
    45    40    41    1
    46    40     8    1
    47    50    25    1
    48    50    15    1
    49    41    42    1
    50    41     9    1
    51    47    48    1
    52    47    13    1
    53    42    23    1
    54    42    10    1
    55    48    14    1
