@<TRIPOS>MOLECULE
16.21251
 54 55 0 0 0
SMALL
GASTEIGER

@<TRIPOS>ATOM
      1 H         -20.7660   -0.1120   -7.9370 H       1  UNL1        0.0569
      2 H         -19.4940    1.9470   -9.8330 H       1  UNL1        0.0569
      3 H         -20.1650   -1.2580   -3.5740 H       1  UNL1        0.2922
      4 H         -18.7290   -4.1070   -2.1870 H       1  UNL1        0.0691
      5 H         -17.0800   -0.3460   -6.1430 H       1  UNL1        0.1490
      6 H         -17.5640    1.5570   -7.2670 H       1  UNL1        0.0465
      7 H         -19.6900    2.6840   -7.4300 H       1  UNL1        0.0322
      8 H         -20.9790    0.9600  -11.4250 H       1  UNL1        0.0307
      9 H         -18.8100   -0.3570  -11.5820 H       1  UNL1        0.0268
     10 H         -19.4660   -2.9220  -10.9920 H       1  UNL1        0.0274
     11 H         -18.1410   -0.9020   -9.1360 H       1  UNL1        0.0427
     12 H         -16.5100   -3.5250   -7.6650 H       1  UNL1        0.0391
     13 H         -17.0670   -1.8610  -11.3010 H       1  UNL1        0.0914
     14 H         -16.5650   -3.9090  -11.3210 H       1  UNL1        0.2125
     15 H         -14.7840   -1.3890  -11.3570 H       1  UNL1        0.0558
     16 H         -12.5830   -1.4090  -10.1730 H       1  UNL1        0.0252
     17 H         -16.6610   -6.3240   -3.9700 H       1  UNL1        0.2922
     18 H         -13.4060   -1.8680   -8.6630 H       1  UNL1        0.0252
     19 H         -18.1530    1.8930   -5.6400 H       1  UNL1        0.0465
     20 H         -20.4670    1.6070   -6.3070 H       1  UNL1        0.0322
     21 H         -21.6010   -0.2140  -10.2910 H       1  UNL1        0.0307
     22 H         -20.2550   -1.1570  -12.1800 H       1  UNL1        0.0268
     23 H         -20.4290   -2.1720   -9.7430 H       1  UNL1        0.0274
     24 H         -16.6950   -1.8490   -7.2970 H       1  UNL1        0.0391
     25 H         -14.4610   -2.9870  -10.6300 H       1  UNL1        0.0558
     26 H         -13.7190   -0.2920   -9.3790 H       1  UNL1        0.0252
     27 C         -18.8490   -2.6420   -3.7600 C.ar    1  UNL1        0.1328
     28 C         -18.4120   -3.8290   -3.1880 C.ar    1  UNL1        0.0235
     29 C         -17.5820   -4.6600   -3.9190 C.ar    1  UNL1        0.1389
     30 C         -17.1850   -4.3220   -5.2230 C.ar    1  UNL1        0.0868
     31 C         -17.6040   -3.1100   -5.8240 C.ar    1  UNL1       -0.0028
     32 C         -18.4370   -2.2490   -5.0540 C.ar    1  UNL1        0.0832
     33 C         -18.9440   -0.9190   -5.5130 C.2     1  UNL1        0.2479
     34 O         -20.0770   -0.5770   -5.1860 O.2     1  UNL1       -0.2701
     35 N         -18.0580   -0.0940   -6.1620 N.am    1  UNL1       -0.3109
     36 C         -18.3340    1.2860   -6.5350 C.3     1  UNL1        0.0153
     37 C         -19.7150    1.6360   -7.1040 C.3     1  UNL1       -0.0191
     38 C         -20.2020    0.7730   -8.2340 C.2     1  UNL1       -0.0865
     39 C         -20.0470    1.0590   -9.5360 C.2     1  UNL1       -0.0879
     40 C         -20.6730    0.2560  -10.6410 C.3     1  UNL1       -0.0347
     41 C         -19.7590   -0.8040  -11.2660 C.3     1  UNL1       -0.0488
     42 C         -19.5350   -2.0260  -10.3600 C.3     1  UNL1       -0.0385
     43 C         -18.2600   -1.9300   -9.4940 C.3     1  UNL1        0.0685
     44 C         -18.3980   -2.7890   -8.2280 C.2     1  UNL1        0.1455
     45 C         -17.2230   -2.8010   -7.2640 C.3     1  UNL1        0.0338
     46 O         -19.4240   -3.4280   -7.9770 O.2     1  UNL1       -0.2966
     47 C         -17.0120   -2.3160  -10.3050 C.3     1  UNL1        0.1656
     48 O         -16.9420   -3.7240  -10.4450 O.3     1  UNL1       -0.3663
     49 O         -15.8560   -1.8170   -9.6380 O.3     1  UNL1       -0.3511
     50 C         -14.6680   -1.9340  -10.4150 C.3     1  UNL1        0.0478
     51 C         -13.5220   -1.3420   -9.6170 C.3     1  UNL1       -0.0415
     52 CL        -16.1570   -5.4590   -6.0420 Cl      1  UNL1       -0.0794
     53 O         -17.1820   -5.8230   -3.3150 O.3     1  UNL1       -0.5052
     54 O         -19.6970   -1.8910   -2.9830 O.3     1  UNL1       -0.5059
@<TRIPOS>BOND
     1    22    41    1
     2     9    41    1
     3     8    40    1
     4    15    50    1
     5    14    48    1
     6    13    47    1
     7    41    40    1
     8    41    42    1
     9    10    42    1
    10    40    21    1
    11    40    39    1
    12    25    50    1
    13    48    47    1
    14    50    49    1
    15    50    51    1
    16    42    23    1
    17    42    43    1
    18    47    49    1
    19    47    43    1
    20    16    51    1
    21     2    39    1
    22    51    26    1
    23    51    18    1
    24    39    38    2
    25    43    11    1
    26    43    44    1
    27    38     1    1
    28    38    37    1
    29    44    46    2
    30    44    45    1
    31    12    45    1
    32     7    37    1
    33    24    45    1
    34     6    36    1
    35    45    31    1
    36    37    36    1
    37    37    20    1
    38    36    35    1
    39    36    19    1
    40    35     5    1
    41    35    33   am
    42    52    30    1
    43    31    30   ar
    44    31    32   ar
    45    33    34    2
    46    33    32    1
    47    30    29   ar
    48    32    27   ar
    49    17    53    1
    50    29    53    1
    51    29    28   ar
    52    27    28   ar
    53    27    54    1
    54     3    54    1
    55    28     4    1
