@<TRIPOS>MOLECULE
20.85250
 54 55 0 0 0
SMALL
GASTEIGER

@<TRIPOS>ATOM
      1 H         -13.5310   -3.2290   -4.0440 H       1  UNL1        0.0569
      2 H         -14.4230   -1.0850   -6.0540 H       1  UNL1        0.0569
      3 H         -14.4200   -5.8030  -10.6080 H       1  UNL1        0.2922
      4 H         -15.0840   -9.0170   -9.4770 H       1  UNL1        0.0691
      5 H         -13.5440   -2.8770   -8.4050 H       1  UNL1        0.1490
      6 H         -11.9380   -4.5350   -7.4010 H       1  UNL1        0.0465
      7 H         -12.1890   -2.1280   -6.5660 H       1  UNL1        0.0322
      8 H         -15.7320   -0.2410   -4.2580 H       1  UNL1        0.0307
      9 H         -17.2710   -1.8870   -3.1720 H       1  UNL1        0.0268
     10 H         -17.8400   -0.8770   -5.3920 H       1  UNL1        0.0274
     11 H         -16.3180   -2.3610   -6.8830 H       1  UNL1        0.0427
     12 H         -15.3580   -4.1890   -6.0590 H       1  UNL1        0.0391
     13 H         -19.2870   -2.5490   -7.5800 H       1  UNL1        0.0914
     14 H         -18.4960   -2.9630   -9.4940 H       1  UNL1        0.2125
     15 H         -20.2350   -0.5780   -8.4060 H       1  UNL1        0.0558
     16 H         -19.9010    1.7080   -9.3540 H       1  UNL1        0.0252
     17 H         -16.8490   -9.6870   -6.5040 H       1  UNL1        0.2922
     18 H         -18.1690    1.6170   -8.9560 H       1  UNL1        0.0252
     19 H         -13.2430   -5.0230   -6.3290 H       1  UNL1        0.0465
     20 H         -11.5560   -3.2810   -5.4040 H       1  UNL1        0.0322
     21 H         -14.9950   -1.3400   -3.1180 H       1  UNL1        0.0307
     22 H         -16.4680   -3.2140   -3.9650 H       1  UNL1        0.0268
     23 H         -18.6830   -2.3450   -4.9360 H       1  UNL1        0.0274
     24 H         -16.2850   -5.2240   -5.0620 H       1  UNL1        0.0391
     25 H         -19.0280   -0.5990   -9.7210 H       1  UNL1        0.0558
     26 H         -19.3590    1.6410   -7.6600 H       1  UNL1        0.0252
     27 C         -14.8790   -6.9060   -9.1100 C.ar    1  UNL1        0.1328
     28 C         -15.2740   -8.1970   -8.7910 C.ar    1  UNL1        0.0235
     29 C         -15.9480   -8.4170   -7.6000 C.ar    1  UNL1        0.1389
     30 C         -16.2340   -7.3580   -6.7230 C.ar    1  UNL1        0.0868
     31 C         -15.8150   -6.0420   -7.0150 C.ar    1  UNL1       -0.0028
     32 C         -15.1000   -5.8360   -8.2200 C.ar    1  UNL1        0.0832
     33 C         -14.6320   -4.5090   -8.6760 C.2     1  UNL1        0.2479
     34 O         -14.9720   -4.1320   -9.7960 O.2     1  UNL1       -0.2701
     35 N         -13.7520   -3.7570   -7.9460 N.am    1  UNL1       -0.3109
     36 C         -12.8380   -4.1750   -6.8880 C.3     1  UNL1        0.0153
     37 C         -12.4560   -3.0080   -5.9670 C.3     1  UNL1       -0.0191
     38 C         -13.5230   -2.6490   -4.9650 C.2     1  UNL1       -0.0865
     39 C         -14.4280   -1.6710   -5.1360 C.2     1  UNL1       -0.0879
     40 C         -15.4600   -1.2930   -4.1120 C.3     1  UNL1       -0.0347
     41 C         -16.7270   -2.1590   -4.0870 C.3     1  UNL1       -0.0488
     42 C         -17.7060   -1.9560   -5.2540 C.3     1  UNL1       -0.0385
     43 C         -17.3370   -2.6260   -6.5910 C.3     1  UNL1        0.0685
     44 C         -17.4370   -4.1480   -6.4840 C.2     1  UNL1        0.1455
     45 C         -16.1770   -4.8960   -6.1010 C.3     1  UNL1        0.0338
     46 O         -18.5090   -4.7410   -6.6300 O.2     1  UNL1       -0.2966
     47 C         -18.2650   -2.1800   -7.7340 C.3     1  UNL1        0.1656
     48 O         -17.7400   -2.7030   -8.9450 O.3     1  UNL1       -0.3663
     49 O         -18.2640   -0.7560   -7.8000 O.3     1  UNL1       -0.3511
     50 C         -19.2360   -0.2450   -8.7060 C.3     1  UNL1        0.0478
     51 C         -19.1680    1.2690   -8.6720 C.3     1  UNL1       -0.0415
     52 CL        -17.1090   -7.7400   -5.2730 Cl      1  UNL1       -0.0794
     53 O         -16.3350   -9.7040   -7.3340 O.3     1  UNL1       -0.5052
     54 O         -14.2890   -6.7380  -10.3370 O.3     1  UNL1       -0.5059
@<TRIPOS>BOND
     1     3    54    1
     2    54    27    1
     3    34    33    2
     4    25    50    1
     5    14    48    1
     6     4    28    1
     7    16    51    1
     8    27    28   ar
     9    27    32   ar
    10    18    51    1
    11    48    47    1
    12    28    29   ar
    13    50    51    1
    14    50    15    1
    15    50    49    1
    16    33    32    1
    17    33    35   am
    18    51    26    1
    19     5    35    1
    20    32    31   ar
    21    35    36    1
    22    49    47    1
    23    47    13    1
    24    47    43    1
    25    29    53    1
    26    29    30   ar
    27     6    36    1
    28    53    17    1
    29    31    30   ar
    30    31    45    1
    31    36    19    1
    32    36    37    1
    33    11    43    1
    34    30    52    1
    35    46    44    2
    36    43    44    1
    37    43    42    1
    38     7    37    1
    39    44    45    1
    40    45    12    1
    41    45    24    1
    42     2    39    1
    43    37    20    1
    44    37    38    1
    45    10    42    1
    46    42    23    1
    47    42    41    1
    48    39    38    2
    49    39    40    1
    50    38     1    1
    51     8    40    1
    52    40    41    1
    53    40    21    1
    54    41    22    1
    55    41     9    1
