@<TRIPOS>MOLECULE
17.93737
 54 55 0 0 0
SMALL
GASTEIGER

@<TRIPOS>ATOM
      1 H         -14.8400    1.7740   -6.9530 H       1  UNL1        0.0569
      2 H         -15.4410   -0.7950   -8.5280 H       1  UNL1        0.0569
      3 H         -20.1600   -1.6620   -6.8300 H       1  UNL1        0.2922
      4 H         -21.2470   -3.2160   -3.8850 H       1  UNL1        0.0691
      5 H         -17.8450    1.1660   -4.8950 H       1  UNL1        0.1490
      6 H         -17.3870    2.7640   -6.3850 H       1  UNL1        0.0465
      7 H         -16.6570    2.3900   -8.6750 H       1  UNL1        0.0322
      8 H         -12.8120    0.2020   -7.3840 H       1  UNL1        0.0307
      9 H         -13.8270   -0.5000   -5.3010 H       1  UNL1        0.0268
     10 H         -14.3970   -3.1950   -6.6420 H       1  UNL1        0.0274
     11 H         -13.9430   -3.3730   -4.2210 H       1  UNL1        0.0427
     12 H         -16.3020   -0.0600   -3.0290 H       1  UNL1        0.0391
     13 H         -16.9000   -3.7210   -4.9370 H       1  UNL1        0.0914
     14 H         -16.9520   -5.0460   -3.1990 H       1  UNL1        0.2125
     15 H         -17.2820   -5.6460   -6.1690 H       1  UNL1        0.0558
     16 H         -16.5060   -7.9190   -6.8660 H       1  UNL1        0.0252
     17 H         -19.4010   -3.2790   -0.8840 H       1  UNL1        0.2922
     18 H         -14.9170   -7.5960   -6.1310 H       1  UNL1        0.0252
     19 H         -18.7240    2.0570   -7.3010 H       1  UNL1        0.0465
     20 H         -17.2170    0.7310   -8.6680 H       1  UNL1        0.0322
     21 H         -13.1530   -1.3380   -8.1560 H       1  UNL1        0.0307
     22 H         -12.6510   -1.7070   -5.7890 H       1  UNL1        0.0268
     23 H         -15.6590   -2.0180   -6.3350 H       1  UNL1        0.0274
     24 H         -16.1020   -0.3530   -4.7260 H       1  UNL1        0.0391
     25 H         -16.7630   -6.6140   -4.7610 H       1  UNL1        0.0558
     26 H         -15.4400   -6.6530   -7.5220 H       1  UNL1        0.0252
     27 C         -19.8400   -1.9900   -4.9580 C.ar    1  UNL1        0.1328
     28 C         -20.2930   -2.6980   -3.8530 C.ar    1  UNL1        0.0235
     29 C         -19.5260   -2.7080   -2.7000 C.ar    1  UNL1        0.1389
     30 C         -18.2830   -2.0600   -2.6540 C.ar    1  UNL1        0.0868
     31 C         -17.7680   -1.3970   -3.7910 C.ar    1  UNL1       -0.0028
     32 C         -18.6140   -1.2930   -4.9250 C.ar    1  UNL1        0.0832
     33 C         -18.3200   -0.4370   -6.1100 C.2     1  UNL1        0.2479
     34 O         -18.5860   -0.8720   -7.2260 O.2     1  UNL1       -0.2701
     35 N         -17.8880    0.8430   -5.8530 N.am    1  UNL1       -0.3109
     36 C         -17.7290    1.8530   -6.8900 C.3     1  UNL1        0.0153
     37 C         -16.7680    1.5060   -8.0360 C.3     1  UNL1       -0.0191
     38 C         -15.3970    1.0810   -7.5800 C.2     1  UNL1       -0.0865
     39 C         -14.8670   -0.1090   -7.9040 C.2     1  UNL1       -0.0879
     40 C         -13.5390   -0.6190   -7.4230 C.3     1  UNL1       -0.0347
     41 C         -13.6290   -1.2810   -6.0430 C.3     1  UNL1       -0.0488
     42 C         -14.6960   -2.3850   -5.9650 C.3     1  UNL1       -0.0385
     43 C         -14.9030   -2.9440   -4.5450 C.3     1  UNL1        0.0685
     44 C         -15.2300   -1.8430   -3.5310 C.2     1  UNL1        0.1455
     45 C         -16.3580   -0.8490   -3.7900 C.3     1  UNL1        0.0338
     46 O         -14.4950   -1.6730   -2.5500 O.2     1  UNL1       -0.2966
     47 C         -15.9430   -4.0750   -4.5420 C.3     1  UNL1        0.1656
     48 O         -16.1220   -4.5450   -3.2190 O.3     1  UNL1       -0.3663
     49 O         -15.4460   -5.1300   -5.3610 O.3     1  UNL1       -0.3511
     50 C         -16.4240   -6.1160   -5.6750 C.3     1  UNL1        0.0478
     51 C         -15.7910   -7.1340   -6.6030 C.3     1  UNL1       -0.0415
     52 CL        -17.4350   -2.0810   -1.1440 Cl      1  UNL1       -0.0794
     53 O         -20.0300   -3.3870   -1.6240 O.3     1  UNL1       -0.5052
     54 O         -20.6580   -2.0140   -6.0580 O.3     1  UNL1       -0.5059
@<TRIPOS>BOND
     1     7    37    1
     2    20    37    1
     3     2    39    1
     4    21    40    1
     5    37    38    1
     6    37    36    1
     7    39    38    2
     8    39    40    1
     9    38     1    1
    10    26    51    1
    11    40     8    1
    12    40    41    1
    13    19    36    1
    14    34    33    2
    15    36     6    1
    16    36    35    1
    17    16    51    1
    18     3    54    1
    19    10    42    1
    20    51    18    1
    21    51    50    1
    22    23    42    1
    23    15    50    1
    24    33    35   am
    25    33    32    1
    26    54    27    1
    27    41    42    1
    28    41    22    1
    29    41     9    1
    30    42    43    1
    31    35     5    1
    32    50    49    1
    33    50    25    1
    34    49    47    1
    35    27    32   ar
    36    27    28   ar
    37    13    47    1
    38    32    31   ar
    39    24    45    1
    40    43    47    1
    41    43    11    1
    42    43    44    1
    43    47    48    1
    44     4    28    1
    45    28    29   ar
    46    31    45    1
    47    31    30   ar
    48    45    44    1
    49    45    12    1
    50    44    46    2
    51    48    14    1
    52    29    30   ar
    53    29    53    1
    54    30    52    1
    55    53    17    1
