@<TRIPOS>MOLECULE
15.78222
 54 55 0 0 0
SMALL
GASTEIGER

@<TRIPOS>ATOM
      1 H         -15.1510   -2.6130   -7.2470 H       1  UNL1        0.0569
      2 H         -15.1940   -1.0740   -4.5940 H       1  UNL1        0.0569
      3 H         -19.9330   -4.8950   -6.1990 H       1  UNL1        0.2922
      4 H         -20.0750   -5.8140   -9.5750 H       1  UNL1        0.0691
      5 H         -18.3120   -2.8720   -4.6010 H       1  UNL1        0.1490
      6 H         -17.1960   -4.1860   -7.0560 H       1  UNL1        0.0465
      7 H         -15.1610   -4.4500   -5.5320 H       1  UNL1        0.0322
      8 H         -14.3710   -0.3790   -7.5240 H       1  UNL1        0.0307
      9 H         -14.2960    1.9740   -6.3480 H       1  UNL1        0.0268
     10 H         -15.7700    1.4830   -8.2920 H       1  UNL1        0.0274
     11 H         -18.2330    1.8120   -7.7070 H       1  UNL1        0.0427
     12 H         -19.9470   -0.2550   -7.7730 H       1  UNL1        0.0391
     13 H         -17.7900   -0.0380   -5.3260 H       1  UNL1        0.0914
     14 H         -19.8620    0.0140   -5.4680 H       1  UNL1        0.2125
     15 H         -17.6290    0.8980   -3.1990 H       1  UNL1        0.0558
     16 H         -17.8090    2.9120   -1.7350 H       1  UNL1        0.0252
     17 H         -19.7150   -3.5820  -12.2680 H       1  UNL1        0.2922
     18 H         -18.0210    3.9370   -3.1750 H       1  UNL1        0.0252
     19 H         -17.4820   -5.0600   -5.5390 H       1  UNL1        0.0465
     20 H         -15.9520   -3.4020   -4.3560 H       1  UNL1        0.0322
     21 H         -13.3940   -0.0510   -6.1090 H       1  UNL1        0.0307
     22 H         -15.4550    1.3310   -5.2250 H       1  UNL1        0.0268
     23 H         -16.2650    2.7310   -7.1820 H       1  UNL1        0.0274
     24 H         -19.3730    0.0780   -9.3590 H       1  UNL1        0.0391
     25 H         -19.1800    1.7420   -3.4600 H       1  UNL1        0.0558
     26 H         -16.4920    3.1050   -2.9160 H       1  UNL1        0.0252
     27 C         -19.7430   -4.3410   -8.0390 C.ar    1  UNL1        0.1328
     28 C         -19.8690   -4.7710   -9.3540 C.ar    1  UNL1        0.0235
     29 C         -19.7310   -3.8520  -10.3840 C.ar    1  UNL1        0.1389
     30 C         -19.4940   -2.4950  -10.1190 C.ar    1  UNL1        0.0868
     31 C         -19.3810   -2.0310   -8.7930 C.ar    1  UNL1       -0.0028
     32 C         -19.4600   -2.9920   -7.7490 C.ar    1  UNL1        0.0832
     33 C         -19.2790   -2.5860   -6.3340 C.2     1  UNL1        0.2479
     34 O         -20.0020   -1.7320   -5.8290 O.2     1  UNL1       -0.2701
     35 N         -18.3120   -3.1800   -5.5660 N.am    1  UNL1       -0.3109
     36 C         -17.2360   -4.0830   -5.9680 C.3     1  UNL1        0.0153
     37 C         -15.8770   -3.6260   -5.4270 C.3     1  UNL1       -0.0191
     38 C         -15.3350   -2.4500   -6.1850 C.2     1  UNL1       -0.0865
     39 C         -15.0460   -1.2510   -5.6560 C.2     1  UNL1       -0.0879
     40 C         -14.4320   -0.1360   -6.4570 C.3     1  UNL1       -0.0347
     41 C         -15.0980    1.2260   -6.2530 C.3     1  UNL1       -0.0488
     42 C         -16.1670    1.6390   -7.2800 C.3     1  UNL1       -0.0385
     43 C         -17.6040    1.0740   -7.1850 C.3     1  UNL1        0.0685
     44 C         -17.7790   -0.2090   -8.0070 C.2     1  UNL1        0.1455
     45 C         -19.1830   -0.5550   -8.4870 C.3     1  UNL1        0.0338
     46 O         -16.8190   -0.8930   -8.3690 O.2     1  UNL1       -0.2966
     47 C         -18.1530    0.8990   -5.7640 C.3     1  UNL1        0.1656
     48 O         -19.5720    0.8830   -5.8180 O.3     1  UNL1       -0.3663
     49 O         -17.7580    1.9980   -4.9490 O.3     1  UNL1       -0.3511
     50 C         -18.0940    1.8150   -3.5770 C.3     1  UNL1        0.0478
     51 C         -17.5760    3.0090   -2.7990 C.3     1  UNL1       -0.0415
     52 CL        -19.3490   -1.4320  -11.4830 Cl      1  UNL1       -0.0794
     53 O         -19.8500   -4.3340  -11.6610 O.3     1  UNL1       -0.5052
     54 O         -19.9210   -5.3050   -7.0830 O.3     1  UNL1       -0.5059
@<TRIPOS>BOND
     1    17    53    1
     2    53    29    1
     3    52    30    1
     4    29    30   ar
     5    29    28   ar
     6    30    31   ar
     7     4    28    1
     8    24    45    1
     9    28    27   ar
    10    31    45    1
    11    31    32   ar
    12    45    44    1
    13    45    12    1
    14    46    44    2
    15    10    42    1
    16    27    32   ar
    17    27    54    1
    18    44    43    1
    19    32    33    1
    20    11    43    1
    21     8    40    1
    22    42    43    1
    23    42    23    1
    24    42    41    1
    25     1    38    1
    26    43    47    1
    27    54     3    1
    28     6    36    1
    29    40    41    1
    30    40    21    1
    31    40    39    1
    32     9    41    1
    33    33    34    2
    34    33    35   am
    35    41    22    1
    36    38    39    2
    37    38    37    1
    38    36    35    1
    39    36    19    1
    40    36    37    1
    41    48    47    1
    42    48    14    1
    43    47    13    1
    44    47    49    1
    45    39     2    1
    46    35     5    1
    47     7    37    1
    48    37    20    1
    49    49    50    1
    50    50    25    1
    51    50    15    1
    52    50    51    1
    53    18    51    1
    54    26    51    1
    55    51    16    1
