@<TRIPOS>MOLECULE
6.69328
 54 55 0 0 0
SMALL
GASTEIGER

@<TRIPOS>ATOM
      1 H         -12.3070    1.6680  -10.5810 H       1  UNL1        0.0569
      2 H         -12.0660    0.9520   -7.6080 H       1  UNL1        0.0569
      3 H         -16.6560   -1.2330   -5.2660 H       1  UNL1        0.2922
      4 H         -19.2730    0.9440   -4.4540 H       1  UNL1        0.0691
      5 H         -15.3660    1.0340   -8.3730 H       1  UNL1        0.1490
      6 H         -14.7070   -1.4910   -8.8140 H       1  UNL1        0.0465
      7 H         -14.2790    0.2960  -10.4660 H       1  UNL1        0.0322
      8 H         -10.9020    3.2380   -9.3670 H       1  UNL1        0.0307
      9 H         -10.5640    4.1790   -6.9300 H       1  UNL1        0.0268
     10 H         -11.8810    5.5170   -8.2550 H       1  UNL1        0.0274
     11 H         -13.2860    3.8850   -9.4800 H       1  UNL1        0.0427
     12 H         -13.9030    2.4390   -6.2880 H       1  UNL1        0.0391
     13 H         -15.3980    5.3460   -9.5190 H       1  UNL1        0.0914
     14 H         -14.2560    6.7330  -10.6350 H       1  UNL1        0.2125
     15 H         -16.5710    7.1390   -8.4500 H       1  UNL1        0.0558
     16 H         -16.3350    9.3010   -7.2190 H       1  UNL1        0.0252
     17 H         -19.0680    4.4480   -4.7600 H       1  UNL1        0.2922
     18 H         -14.6540    8.8840   -6.8130 H       1  UNL1        0.0252
     19 H         -13.2890   -1.0280   -7.8760 H       1  UNL1        0.0465
     20 H         -12.9370   -0.8380  -10.3740 H       1  UNL1        0.0322
     21 H         -10.0080    2.3270   -8.1580 H       1  UNL1        0.0307
     22 H         -11.8390    3.1010   -6.4480 H       1  UNL1        0.0268
     23 H         -12.7890    5.2520   -6.7880 H       1  UNL1        0.0274
     24 H         -14.5180    4.0350   -5.9470 H       1  UNL1        0.0391
     25 H         -15.2310    8.1150   -9.1070 H       1  UNL1        0.0558
     26 H         -15.9710    7.9330   -6.1430 H       1  UNL1        0.0252
     27 C         -17.3530    0.5550   -5.3470 C.ar    1  UNL1        0.1328
     28 C         -18.3820    1.3740   -4.9010 C.ar    1  UNL1        0.0235
     29 C         -18.2550    2.7480   -5.0410 C.ar    1  UNL1        0.1389
     30 C         -17.0950    3.3160   -5.5890 C.ar    1  UNL1        0.0868
     31 C         -16.0270    2.5050   -6.0230 C.ar    1  UNL1       -0.0028
     32 C         -16.2050    1.1010   -5.9510 C.ar    1  UNL1        0.0832
     33 C         -15.2360    0.1290   -6.5130 C.2     1  UNL1        0.2479
     34 O         -14.8800   -0.8210   -5.8240 O.2     1  UNL1       -0.2701
     35 N         -14.9010    0.3030   -7.8320 N.am    1  UNL1       -0.3109
     36 C         -14.0650   -0.6440   -8.5480 C.3     1  UNL1        0.0153
     37 C         -13.4570   -0.0450   -9.8230 C.3     1  UNL1       -0.0191
     38 C         -12.5030    1.1130   -9.6640 C.2     1  UNL1       -0.0865
     39 C         -11.9110    1.5130   -8.5280 C.2     1  UNL1       -0.0879
     40 C         -11.0050    2.7060   -8.4150 C.3     1  UNL1       -0.0347
     41 C         -11.4570    3.6620   -7.3070 C.3     1  UNL1       -0.0488
     42 C         -12.4570    4.7570   -7.7090 C.3     1  UNL1       -0.0385
     43 C         -13.6720    4.3800   -8.5800 C.3     1  UNL1        0.0685
     44 C         -14.7110    3.4280   -7.9970 C.2     1  UNL1        0.1455
     45 C         -14.7250    3.1220   -6.5120 C.3     1  UNL1        0.0338
     46 O         -15.5350    2.8930   -8.7540 O.2     1  UNL1       -0.2966
     47 C         -14.4460    5.6280   -9.0520 C.3     1  UNL1        0.1656
     48 O         -13.6450    6.2940  -10.0230 O.3     1  UNL1       -0.3663
     49 O         -14.6780    6.4870   -7.9410 O.3     1  UNL1       -0.3511
     50 C         -15.5780    7.5500   -8.2370 C.3     1  UNL1        0.0478
     51 C         -15.6440    8.4740   -7.0360 C.3     1  UNL1       -0.0415
     52 CL        -17.0300    5.0430   -5.7110 Cl      1  UNL1       -0.0794
     53 O         -19.3020    3.5150   -4.6030 O.3     1  UNL1       -0.5052
     54 O         -17.5280   -0.7920   -5.1620 O.3     1  UNL1       -0.5059
@<TRIPOS>BOND
     1    14    48    1
     2     1    38    1
     3     7    37    1
     4    20    37    1
     5    48    47    1
     6    37    38    1
     7    37    36    1
     8    38    39    2
     9    13    47    1
    10    11    43    1
    11     8    40    1
    12    25    50    1
    13    47    43    1
    14    47    49    1
    15     6    36    1
    16    46    44    2
    17    43    44    1
    18    43    42    1
    19    36    19    1
    20    36    35    1
    21    39    40    1
    22    39     2    1
    23    15    50    1
    24    40    21    1
    25    40    41    1
    26     5    35    1
    27    10    42    1
    28    50    49    1
    29    50    51    1
    30    44    45    1
    31    35    33   am
    32    42    41    1
    33    42    23    1
    34    41     9    1
    35    41    22    1
    36    16    51    1
    37    51    18    1
    38    51    26    1
    39    33    32    1
    40    33    34    2
    41    45    12    1
    42    45    31    1
    43    45    24    1
    44    31    32   ar
    45    31    30   ar
    46    32    27   ar
    47    52    30    1
    48    30    29   ar
    49    27    54    1
    50    27    28   ar
    51     3    54    1
    52    29    28   ar
    53    29    53    1
    54    28     4    1
    55    17    53    1
