@<TRIPOS>MOLECULE
9.98211
 54 55 0 0 0
SMALL
GASTEIGER

@<TRIPOS>ATOM
      1 H         -16.0110   -1.2590   -3.7830 H       1  UNL1        0.0569
      2 H         -14.4170   -3.6340   -4.8980 H       1  UNL1        0.0569
      3 H         -14.4360   -7.8270   -0.7770 H       1  UNL1        0.2922
      4 H         -12.5960   -7.4710    2.1770 H       1  UNL1        0.0691
      5 H         -14.4410   -3.8290   -1.5820 H       1  UNL1        0.1490
      6 H         -16.6200   -5.3060   -2.3490 H       1  UNL1        0.0465
      7 H         -16.6750   -2.8370   -2.1080 H       1  UNL1        0.0322
      8 H         -14.2990   -0.5770   -5.4040 H       1  UNL1        0.0307
      9 H         -11.7550   -1.1360   -5.5350 H       1  UNL1        0.0268
     10 H         -13.3940   -0.7360   -3.0580 H       1  UNL1        0.0274
     11 H         -11.3650   -0.6190   -1.6460 H       1  UNL1        0.0427
     12 H         -11.9470   -4.3770   -2.8240 H       1  UNL1        0.0391
     13 H          -9.6770   -0.6230   -3.4200 H       1  UNL1        0.0914
     14 H          -9.1570   -2.3840   -4.4850 H       1  UNL1        0.2125
     15 H          -7.5640   -0.6310   -2.4200 H       1  UNL1        0.0558
     16 H          -5.8850   -1.8710   -1.0720 H       1  UNL1        0.0252
     17 H         -10.0920   -5.0350    2.6330 H       1  UNL1        0.2922
     18 H          -7.1210   -3.0590   -0.6070 H       1  UNL1        0.0252
     19 H         -15.7130   -5.1810   -3.8500 H       1  UNL1        0.0465
     20 H         -17.5060   -3.3970   -3.5550 H       1  UNL1        0.0322
     21 H         -13.7990   -1.8600   -6.5050 H       1  UNL1        0.0307
     22 H         -12.1510   -2.6340   -4.6970 H       1  UNL1        0.0268
     23 H         -12.0960    0.2120   -3.7320 H       1  UNL1        0.0274
     24 H         -10.4770   -3.9930   -1.9680 H       1  UNL1        0.0391
     25 H          -7.4690   -2.3310   -2.9520 H       1  UNL1        0.0558
     26 H          -7.2600   -1.3970   -0.0450 H       1  UNL1        0.0252
     27 C         -13.1910   -6.7690    0.2310 C.ar    1  UNL1        0.1328
     28 C         -12.4220   -6.7490    1.3860 C.ar    1  UNL1        0.0235
     29 C         -11.4380   -5.7830    1.5150 C.ar    1  UNL1        0.1389
     30 C         -11.1840   -4.8650    0.4830 C.ar    1  UNL1        0.0868
     31 C         -11.9310   -4.8910   -0.7150 C.ar    1  UNL1       -0.0028
     32 C         -12.9930   -5.8190   -0.7940 C.ar    1  UNL1        0.0832
     33 C         -13.9930   -5.8400   -1.8860 C.2     1  UNL1        0.2479
     34 O         -14.2730   -6.9160   -2.4070 O.2     1  UNL1       -0.2701
     35 N         -14.6790   -4.6690   -2.1120 N.am    1  UNL1       -0.3109
     36 C         -15.9040   -4.6790   -2.8950 C.3     1  UNL1        0.0153
     37 C         -16.5160   -3.2870   -3.0960 C.3     1  UNL1       -0.0191
     38 C         -15.7310   -2.3020   -3.9220 C.2     1  UNL1       -0.0865
     39 C         -14.7130   -2.5980   -4.7440 C.2     1  UNL1       -0.0879
     40 C         -13.8620   -1.5810   -5.4470 C.3     1  UNL1       -0.0347
     41 C         -12.4610   -1.5920   -4.8290 C.3     1  UNL1       -0.0488
     42 C         -12.3950   -0.8200   -3.5030 C.3     1  UNL1       -0.0385
     43 C         -11.4280   -1.3810   -2.4390 C.3     1  UNL1        0.0685
     44 C         -12.0870   -2.5640   -1.7150 C.2     1  UNL1        0.1455
     45 C         -11.5640   -3.9790   -1.8780 C.3     1  UNL1        0.0338
     46 O         -13.1300   -2.3730   -1.0680 O.2     1  UNL1       -0.2966
     47 C          -9.9890   -1.5620   -2.9430 C.3     1  UNL1        0.1656
     48 O          -9.8960   -2.6040   -3.8940 O.3     1  UNL1       -0.3663
     49 O          -9.1430   -1.8300   -1.8330 O.3     1  UNL1       -0.3511
     50 C          -7.7590   -1.6690   -2.1300 C.3     1  UNL1        0.0478
     51 C          -6.9540   -2.0160   -0.8940 C.3     1  UNL1       -0.0415
     52 CL         -9.9260   -3.7040    0.7500 Cl      1  UNL1       -0.0794
     53 O         -10.7220   -5.7780    2.6830 O.3     1  UNL1       -0.5052
     54 O         -14.1410   -7.7560    0.1580 O.3     1  UNL1       -0.5059
@<TRIPOS>BOND
     1    21    40    1
     2     9    41    1
     3    40     8    1
     4    40    41    1
     5    40    39    1
     6     2    39    1
     7    41    22    1
     8    41    42    1
     9    39    38    2
    10    14    48    1
    11    38     1    1
    12    38    37    1
    13    48    47    1
    14    19    36    1
    15    23    42    1
    16    20    37    1
    17    42    10    1
    18    42    43    1
    19    13    47    1
    20    37    36    1
    21    37     7    1
    22    25    50    1
    23    47    43    1
    24    47    49    1
    25    36     6    1
    26    36    35    1
    27    12    45    1
    28    43    44    1
    29    43    11    1
    30    15    50    1
    31    34    33    2
    32    50    49    1
    33    50    51    1
    34    35    33   am
    35    35     5    1
    36    24    45    1
    37    33    32    1
    38    45    44    1
    39    45    31    1
    40    44    46    2
    41    16    51    1
    42    51    18    1
    43    51    26    1
    44    32    31   ar
    45    32    27   ar
    46     3    54    1
    47    31    30   ar
    48    54    27    1
    49    27    28   ar
    50    30    52    1
    51    30    29   ar
    52    28    29   ar
    53    28     4    1
    54    29    53    1
    55    17    53    1
