@<TRIPOS>MOLECULE
14.82079
 54 55 0 0 0
SMALL
GASTEIGER

@<TRIPOS>ATOM
      1 H         -15.5710    3.4290   -6.5080 H       1  UNL1        0.0569
      2 H         -14.9710    6.3050   -7.3860 H       1  UNL1        0.0569
      3 H         -19.1460    0.7570   -5.6390 H       1  UNL1        0.2922
      4 H         -19.0500   -1.4610   -2.9680 H       1  UNL1        0.0691
      5 H         -17.8360    4.1060   -3.6430 H       1  UNL1        0.1490
      6 H         -17.6990    5.8460   -5.0700 H       1  UNL1        0.0465
      7 H         -17.3310    5.7760   -7.4440 H       1  UNL1        0.0322
      8 H         -12.7440    5.7770   -6.5360 H       1  UNL1        0.0307
      9 H         -11.8770    3.3460   -7.0010 H       1  UNL1        0.0268
     10 H         -11.6660    4.4180   -4.8520 H       1  UNL1        0.0274
     11 H         -14.2390    4.7310   -4.3910 H       1  UNL1        0.0427
     12 H         -15.1300    2.8030   -1.7970 H       1  UNL1        0.0391
     13 H         -12.2370    5.1450   -2.8340 H       1  UNL1        0.0914
     14 H         -11.7050    3.6330   -1.4570 H       1  UNL1        0.2125
     15 H         -12.8440    6.4440   -0.9950 H       1  UNL1        0.0558
     16 H         -14.4510    6.8550    0.8750 H       1  UNL1        0.0252
     17 H         -16.6220   -1.3480   -0.4260 H       1  UNL1        0.2922
     18 H         -15.5250    5.5940    0.2230 H       1  UNL1        0.0252
     19 H         -19.0570    4.9700   -5.7850 H       1  UNL1        0.0465
     20 H         -17.6880    4.0710   -7.5560 H       1  UNL1        0.0322
     21 H         -12.9390    5.0060   -8.0970 H       1  UNL1        0.0307
     22 H         -13.5030    2.8070   -6.6940 H       1  UNL1        0.0268
     23 H         -11.9650    2.6980   -4.7170 H       1  UNL1        0.0274
     24 H         -16.1070    3.7320   -2.8620 H       1  UNL1        0.0391
     25 H         -13.1270    4.9550   -0.0510 H       1  UNL1        0.0558
     26 H         -15.2480    7.0650   -0.7020 H       1  UNL1        0.0252
     27 C         -18.4540    0.3910   -3.8890 C.ar    1  UNL1        0.1328
     28 C         -18.3830   -0.6060   -2.9250 C.ar    1  UNL1        0.0235
     29 C         -17.4280   -0.5070   -1.9300 C.ar    1  UNL1        0.1389
     30 C         -16.5430    0.5830   -1.8810 C.ar    1  UNL1        0.0868
     31 C         -16.6180    1.6330   -2.8310 C.ar    1  UNL1       -0.0028
     32 C         -17.6070    1.5240   -3.8470 C.ar    1  UNL1        0.0832
     33 C         -17.8140    2.5160   -4.9430 C.2     1  UNL1        0.2479
     34 O         -18.1080    2.1040   -6.0630 O.2     1  UNL1       -0.2701
     35 N         -17.7760    3.8490   -4.6180 N.am    1  UNL1       -0.3109
     36 C         -17.9810    4.9190   -5.5820 C.3     1  UNL1        0.0153
     37 C         -17.2160    4.8230   -6.9120 C.3     1  UNL1       -0.0191
     38 C         -15.7600    4.4640   -6.7830 C.2     1  UNL1       -0.0865
     39 C         -14.7400    5.2900   -7.0650 C.2     1  UNL1       -0.0879
     40 C         -13.2690    4.9620   -7.0500 C.3     1  UNL1       -0.0347
     41 C         -12.8020    3.6160   -6.4720 C.3     1  UNL1       -0.0488
     42 C         -12.4420    3.6520   -4.9770 C.3     1  UNL1       -0.0385
     43 C         -13.6030    3.9320   -3.9990 C.3     1  UNL1        0.0685
     44 C         -14.4990    2.6900   -3.8200 C.2     1  UNL1        0.1455
     45 C         -15.6060    2.7690   -2.7780 C.3     1  UNL1        0.0338
     46 O         -14.3660    1.6880   -4.5290 O.2     1  UNL1       -0.2966
     47 C         -13.0270    4.4050   -2.6500 C.3     1  UNL1        0.1656
     48 O         -12.4780    3.3070   -1.9460 O.3     1  UNL1       -0.3663
     49 O         -14.0620    5.0350   -1.9000 O.3     1  UNL1       -0.3511
     50 C         -13.5870    5.6850   -0.7250 C.3     1  UNL1        0.0478
     51 C         -14.7670    6.3410   -0.0370 C.3     1  UNL1       -0.0415
     52 CL        -15.3620    0.5650   -0.6040 Cl      1  UNL1       -0.0794
     53 O         -17.3810   -1.5240   -1.0140 O.3     1  UNL1       -0.5052
     54 O         -19.3920    0.1920   -4.8710 O.3     1  UNL1       -0.5059
@<TRIPOS>BOND
     1    21    40    1
     2    20    37    1
     3     7    37    1
     4     2    39    1
     5    39    40    1
     6    39    38    2
     7    40     8    1
     8    40    41    1
     9     9    41    1
    10    37    38    1
    11    37    36    1
    12    38     1    1
    13    22    41    1
    14    41    42    1
    15    34    33    2
    16    19    36    1
    17     3    54    1
    18    36     6    1
    19    36    35    1
    20    42    10    1
    21    42    23    1
    22    42    43    1
    23    33    35   am
    24    33    32    1
    25    54    27    1
    26    35     5    1
    27    46    44    2
    28    11    43    1
    29    43    44    1
    30    43    47    1
    31    27    32   ar
    32    27    28   ar
    33    32    31   ar
    34    44    45    1
    35     4    28    1
    36    28    29   ar
    37    24    45    1
    38    13    47    1
    39    31    45    1
    40    31    30   ar
    41    45    12    1
    42    47    48    1
    43    47    49    1
    44    48    14    1
    45    29    30   ar
    46    29    53    1
    47    49    50    1
    48    30    52    1
    49    53    17    1
    50    15    50    1
    51    50    25    1
    52    50    51    1
    53    26    51    1
    54    51    18    1
    55    51    16    1
