@<TRIPOS>MOLECULE
13.32669
 54 55 0 0 0
SMALL
GASTEIGER

@<TRIPOS>ATOM
      1 H         -21.5070   -3.0740   -2.2500 H       1  UNL1        0.0569
      2 H         -20.5780   -1.3080   -4.5790 H       1  UNL1        0.0569
      3 H         -23.2520    4.4320   -2.3310 H       1  UNL1        0.2922
      4 H         -21.6070    5.6710   -1.5040 H       1  UNL1        0.0691
      5 H         -22.4410    1.3060   -2.2160 H       1  UNL1        0.1490
      6 H         -22.6450   -0.2960   -4.7470 H       1  UNL1        0.0465
      7 H         -23.6550   -2.1020   -3.2190 H       1  UNL1        0.0322
      8 H         -18.6590   -2.5980   -4.6620 H       1  UNL1        0.0307
      9 H         -17.5440   -3.4450   -2.7050 H       1  UNL1        0.0268
     10 H         -17.6240   -1.6680   -1.0190 H       1  UNL1        0.0274
     11 H         -17.8970   -0.6410   -3.8800 H       1  UNL1        0.0427
     12 H         -17.2720    2.3420   -3.8310 H       1  UNL1        0.0391
     13 H         -15.6270   -0.3280   -1.8330 H       1  UNL1        0.0914
     14 H         -14.5860    0.5260   -3.5180 H       1  UNL1        0.2125
     15 H         -14.0940   -2.0780   -1.7980 H       1  UNL1        0.0558
     16 H         -12.9300   -3.8960   -3.0540 H       1  UNL1        0.0252
     17 H         -18.1630    6.2020   -1.2410 H       1  UNL1        0.2922
     18 H         -14.1380   -3.7640   -4.3560 H       1  UNL1        0.0252
     19 H         -23.9570    0.2060   -3.6880 H       1  UNL1        0.0465
     20 H         -23.0160   -1.2210   -1.8370 H       1  UNL1        0.0322
     21 H         -19.5670   -3.9720   -4.0870 H       1  UNL1        0.0307
     22 H         -19.0240   -3.5190   -1.7820 H       1  UNL1        0.0268
     23 H         -19.1840   -1.1310   -1.5800 H       1  UNL1        0.0274
     24 H         -18.6020    1.3970   -4.3840 H       1  UNL1        0.0391
     25 H         -13.5880   -1.5160   -3.4150 H       1  UNL1        0.0558
     26 H         -14.6340   -4.3190   -2.7620 H       1  UNL1        0.0252
     27 C         -21.4560    3.7750   -2.5480 C.ar    1  UNL1        0.1328
     28 C         -20.9530    4.9190   -1.9350 C.ar    1  UNL1        0.0235
     29 C         -19.5800    5.0980   -1.8650 C.ar    1  UNL1        0.1389
     30 C         -18.6950    4.1490   -2.3960 C.ar    1  UNL1        0.0868
     31 C         -19.1830    2.9860   -3.0290 C.ar    1  UNL1       -0.0028
     32 C         -20.5900    2.8070   -3.0980 C.ar    1  UNL1        0.0832
     33 C         -21.1790    1.6290   -3.8020 C.2     1  UNL1        0.2479
     34 O         -20.8010    1.3380   -4.9310 O.2     1  UNL1       -0.2701
     35 N         -22.1410    0.9320   -3.1090 N.am    1  UNL1       -0.3109
     36 C         -22.9180   -0.1440   -3.6980 C.3     1  UNL1        0.0153
     37 C         -22.8340   -1.4490   -2.8950 C.3     1  UNL1       -0.0191
     38 C         -21.5680   -2.2640   -2.9750 C.2     1  UNL1       -0.0865
     39 C         -20.5450   -2.0960   -3.8280 C.2     1  UNL1       -0.0879
     40 C         -19.2990   -2.9370   -3.8380 C.3     1  UNL1       -0.0347
     41 C         -18.4910   -2.9220   -2.5340 C.3     1  UNL1       -0.0488
     42 C         -18.2250   -1.5370   -1.9290 C.3     1  UNL1       -0.0385
     43 C         -17.5370   -0.5130   -2.8550 C.3     1  UNL1        0.0685
     44 C         -17.9270    0.8890   -2.4080 C.2     1  UNL1        0.1455
     45 C         -18.2210    1.9100   -3.5000 C.3     1  UNL1        0.0338
     46 O         -17.9360    1.1930   -1.2110 O.2     1  UNL1       -0.2966
     47 C         -16.0080   -0.5930   -2.8290 C.3     1  UNL1        0.1656
     48 O         -15.4970    0.3270   -3.7860 O.3     1  UNL1       -0.3663
     49 O         -15.6110   -1.9080   -3.1940 O.3     1  UNL1       -0.3511
     50 C         -14.2550   -2.1960   -2.8750 C.3     1  UNL1        0.0478
     51 C         -13.9650   -3.6270   -3.2830 C.3     1  UNL1       -0.0415
     52 CL        -16.9960    4.4630   -2.2290 Cl      1  UNL1       -0.0794
     53 O         -19.1390    6.2380   -1.2450 O.3     1  UNL1       -0.5052
     54 O         -22.8140    3.6070   -2.6050 O.3     1  UNL1       -0.5059
@<TRIPOS>BOND
     1    34    33    2
     2     6    36    1
     3     8    40    1
     4     2    39    1
     5    24    45    1
     6    18    51    1
     7    21    40    1
     8    11    43    1
     9    40    39    1
    10    40    41    1
    11    12    45    1
    12    39    38    2
    13    33    35   am
    14    33    32    1
    15    48    14    1
    16    48    47    1
    17    36    19    1
    18    36    35    1
    19    36    37    1
    20    45    31    1
    21    45    44    1
    22    25    50    1
    23    51    16    1
    24    51    50    1
    25    51    26    1
    26     7    37    1
    27    49    50    1
    28    49    47    1
    29    35     5    1
    30    32    31   ar
    31    32    27   ar
    32    31    30   ar
    33    38    37    1
    34    38     1    1
    35    37    20    1
    36    50    15    1
    37    43    47    1
    38    43    44    1
    39    43    42    1
    40    47    13    1
    41     9    41    1
    42    54    27    1
    43    54     3    1
    44    27    28   ar
    45    41    42    1
    46    41    22    1
    47    44    46    2
    48    30    52    1
    49    30    29   ar
    50    28    29   ar
    51    28     4    1
    52    42    23    1
    53    42    10    1
    54    29    53    1
    55    53    17    1
