@<TRIPOS>MOLECULE
10.75855
 54 55 0 0 0
SMALL
GASTEIGER

@<TRIPOS>ATOM
      1 H         -10.5190   -1.2910   -8.4740 H       1  UNL1        0.0569
      2 H         -13.5660   -0.9810   -8.3100 H       1  UNL1        0.0569
      3 H         -13.1950   -4.4140   -2.7780 H       1  UNL1        0.2922
      4 H         -15.2530   -2.2470   -0.9520 H       1  UNL1        0.0691
      5 H         -12.5130   -1.7080   -5.7440 H       1  UNL1        0.1490
      6 H         -11.4670   -4.3810   -6.2860 H       1  UNL1        0.0465
      7 H         -12.8920   -3.2170   -7.9680 H       1  UNL1        0.0322
      8 H         -13.2740    1.3270   -8.4210 H       1  UNL1        0.0307
      9 H         -11.0410    2.3620   -9.1910 H       1  UNL1        0.0268
     10 H         -12.1590    2.5940   -6.8500 H       1  UNL1        0.0274
     11 H         -10.3710    2.2710   -5.1020 H       1  UNL1        0.0427
     12 H         -10.4530   -0.8300   -4.0190 H       1  UNL1        0.0391
     13 H          -9.4280   -0.2010   -6.6250 H       1  UNL1        0.0914
     14 H          -7.8880   -0.1360   -5.0610 H       1  UNL1        0.2125
     15 H          -7.7330    0.0970   -8.1740 H       1  UNL1        0.0558
     16 H          -5.7360    1.3970   -8.9170 H       1  UNL1        0.0252
     17 H         -14.7500    1.2370   -0.7730 H       1  UNL1        0.2922
     18 H          -6.1750    2.7070   -7.7950 H       1  UNL1        0.0252
     19 H         -10.2490   -3.1050   -6.4010 H       1  UNL1        0.0465
     20 H         -11.3160   -3.6460   -8.6230 H       1  UNL1        0.0322
     21 H         -12.5310    0.8430   -9.9270 H       1  UNL1        0.0307
     22 H         -10.2390    0.9370   -8.6090 H       1  UNL1        0.0268
     23 H         -10.5460    3.1510   -7.1880 H       1  UNL1        0.0274
     24 H         -10.7170    0.7020   -3.2210 H       1  UNL1        0.0391
     25 H          -6.6640    0.4710   -6.7940 H       1  UNL1        0.0558
     26 H          -7.2280    2.3380   -9.1550 H       1  UNL1        0.0252
     27 C         -13.6940   -2.6000   -2.3940 C.ar    1  UNL1        0.1328
     28 C         -14.4680   -1.8050   -1.5590 C.ar    1  UNL1        0.0235
     29 C         -14.2260   -0.4390   -1.5120 C.ar    1  UNL1        0.1389
     30 C         -13.1930    0.1400   -2.2650 C.ar    1  UNL1        0.0868
     31 C         -12.3830   -0.6540   -3.1010 C.ar    1  UNL1       -0.0028
     32 C         -12.6950   -2.0310   -3.2020 C.ar    1  UNL1        0.0832
     33 C         -11.9990   -2.9340   -4.1480 C.2     1  UNL1        0.2479
     34 O         -11.5390   -3.9920   -3.7330 O.2     1  UNL1       -0.2701
     35 N         -11.9980   -2.5450   -5.4660 N.am    1  UNL1       -0.3109
     36 C         -11.3210   -3.3150   -6.4930 C.3     1  UNL1        0.0153
     37 C         -11.8200   -2.9910   -7.9030 C.3     1  UNL1       -0.0191
     38 C         -11.5560   -1.5610   -8.3010 C.2     1  UNL1       -0.0865
     39 C         -12.5360   -0.6590   -8.4650 C.2     1  UNL1       -0.0879
     40 C         -12.4110    0.7920   -8.8370 C.3     1  UNL1       -0.0347
     41 C         -11.1310    1.5480   -8.4570 C.3     1  UNL1       -0.0488
     42 C         -11.1470    2.2370   -7.0770 C.3     1  UNL1       -0.0385
     43 C         -10.5620    1.4900   -5.8530 C.3     1  UNL1        0.0685
     44 C         -11.5850    0.5710   -5.1820 C.2     1  UNL1        0.1455
     45 C         -11.2050   -0.0540   -3.8460 C.3     1  UNL1        0.0338
     46 O         -12.6880    0.3370   -5.6830 O.2     1  UNL1       -0.2966
     47 C          -9.2390    0.7570   -6.1270 C.3     1  UNL1        0.1656
     48 O          -8.5920    0.5100   -4.8870 O.3     1  UNL1       -0.3663
     49 O          -8.4010    1.5960   -6.9110 O.3     1  UNL1       -0.3511
     50 C          -7.3330    0.9010   -7.5460 C.3     1  UNL1        0.0478
     51 C          -6.5690    1.8880   -8.4060 C.3     1  UNL1       -0.0415
     52 CL        -12.9490    1.8520   -2.1300 Cl      1  UNL1       -0.0794
     53 O         -15.0260    0.3060   -0.6860 O.3     1  UNL1       -0.5052
     54 O         -13.9590   -3.9440   -2.3790 O.3     1  UNL1       -0.5059
@<TRIPOS>BOND
     1    21    40    1
     2     9    41    1
     3    26    51    1
     4    16    51    1
     5    40    39    1
     6    40    41    1
     7    40     8    1
     8    20    37    1
     9    22    41    1
    10     1    38    1
    11    39     2    1
    12    39    38    2
    13    41    42    1
    14    51    18    1
    15    51    50    1
    16    38    37    1
    17    15    50    1
    18     7    37    1
    19    37    36    1
    20    50    49    1
    21    50    25    1
    22    23    42    1
    23    42    10    1
    24    42    43    1
    25    49    47    1
    26    13    47    1
    27    36    19    1
    28    36     6    1
    29    36    35    1
    30    47    43    1
    31    47    48    1
    32    43    44    1
    33    43    11    1
    34     5    35    1
    35    46    44    2
    36    35    33   am
    37    44    45    1
    38    14    48    1
    39    33    34    2
    40    33    32    1
    41    12    45    1
    42    45    24    1
    43    45    31    1
    44    32    31   ar
    45    32    27   ar
    46    31    30   ar
    47     3    54    1
    48    27    54    1
    49    27    28   ar
    50    30    52    1
    51    30    29   ar
    52    28    29   ar
    53    28     4    1
    54    29    53    1
    55    17    53    1
