@<TRIPOS>MOLECULE
17.40877
 54 55 0 0 0
SMALL
GASTEIGER

@<TRIPOS>ATOM
      1 H         -20.8060   -1.3900   -5.6900 H       1  UNL1        0.0569
      2 H         -22.2900   -1.0870   -3.0190 H       1  UNL1        0.0569
      3 H         -22.4550    2.8550   -3.4760 H       1  UNL1        0.2922
      4 H         -21.3700    5.8300   -2.3500 H       1  UNL1        0.0691
      5 H         -21.9870    2.9560   -5.4060 H       1  UNL1        0.1490
      6 H         -21.1970    0.7310   -6.9820 H       1  UNL1        0.0465
      7 H         -23.2010   -0.7690   -6.3700 H       1  UNL1        0.0322
      8 H         -19.5510   -2.2340   -3.9360 H       1  UNL1        0.0307
      9 H         -20.1240   -1.5600   -1.0730 H       1  UNL1        0.0268
     10 H         -17.8760   -2.3760   -2.1170 H       1  UNL1        0.0274
     11 H         -17.7540   -0.5290   -3.8970 H       1  UNL1        0.0427
     12 H         -16.5250    2.5770   -3.5010 H       1  UNL1        0.0391
     13 H         -15.5060   -0.3690   -1.8030 H       1  UNL1        0.0914
     14 H         -14.3090    0.2720   -3.4960 H       1  UNL1        0.2125
     15 H         -14.2090   -2.2900   -1.6490 H       1  UNL1        0.0558
     16 H         -13.2030   -4.2590   -2.8100 H       1  UNL1        0.0252
     17 H         -18.0720    6.4150   -1.2930 H       1  UNL1        0.2922
     18 H         -14.3200   -4.0200   -4.1750 H       1  UNL1        0.0252
     19 H         -22.7780    1.5260   -6.9370 H       1  UNL1        0.0465
     20 H         -23.3690    0.1470   -4.8690 H       1  UNL1        0.0322
     21 H         -20.5680   -3.0510   -2.7560 H       1  UNL1        0.0307
     22 H         -19.9810   -0.1610   -2.1150 H       1  UNL1        0.0268
     23 H         -17.8670   -1.1240   -0.8890 H       1  UNL1        0.0274
     24 H         -17.5730    1.7380   -4.5590 H       1  UNL1        0.0391
     25 H         -13.5610   -1.8280   -3.2470 H       1  UNL1        0.0558
     26 H         -14.9570   -4.4760   -2.6000 H       1  UNL1        0.0252
     27 C         -20.9270    3.9860   -3.3760 C.ar    1  UNL1        0.1328
     28 C         -20.6010    5.1220   -2.6460 C.ar    1  UNL1        0.0235
     29 C         -19.2860    5.3220   -2.2660 C.ar    1  UNL1        0.1389
     30 C         -18.2930    4.3870   -2.5890 C.ar    1  UNL1        0.0868
     31 C         -18.6000    3.2340   -3.3510 C.ar    1  UNL1       -0.0028
     32 C         -19.9450    3.0620   -3.7950 C.ar    1  UNL1        0.0832
     33 C         -20.3290    1.9280   -4.7090 C.2     1  UNL1        0.2479
     34 O         -19.5980    0.9570   -4.8430 O.2     1  UNL1       -0.2701
     35 N         -21.5170    2.0550   -5.4060 N.am    1  UNL1       -0.3109
     36 C         -22.0160    1.0350   -6.3200 C.3     1  UNL1        0.0153
     37 C         -22.6480   -0.1870   -5.6240 C.3     1  UNL1       -0.0191
     38 C         -21.6090   -1.0850   -5.0190 C.2     1  UNL1       -0.0865
     39 C         -21.5190   -1.4020   -3.7180 C.2     1  UNL1       -0.0879
     40 C         -20.2940   -2.0650   -3.1480 C.3     1  UNL1       -0.0347
     41 C         -19.6910   -1.2140   -2.0210 C.3     1  UNL1       -0.0488
     42 C         -18.1620   -1.3350   -1.9250 C.3     1  UNL1       -0.0385
     43 C         -17.3980   -0.3740   -2.8740 C.3     1  UNL1        0.0685
     44 C         -17.6350    1.0810   -2.4760 C.2     1  UNL1        0.1455
     45 C         -17.5360    2.1600   -3.5530 C.3     1  UNL1        0.0338
     46 O         -17.8300    1.3900   -1.2930 O.2     1  UNL1       -0.2966
     47 C         -15.8830   -0.6150   -2.8040 C.3     1  UNL1        0.1656
     48 O         -15.2400    0.2140   -3.7630 O.3     1  UNL1       -0.3663
     49 O         -15.6240   -1.9780   -3.1260 O.3     1  UNL1       -0.3511
     50 C         -14.3290   -2.4130   -2.7310 C.3     1  UNL1        0.0478
     51 C         -14.1870   -3.8780   -3.0980 C.3     1  UNL1       -0.0415
     52 CL        -16.6880    4.7110   -2.0050 Cl      1  UNL1       -0.0794
     53 O         -19.0160    6.4490   -1.5360 O.3     1  UNL1       -0.5052
     54 O         -22.2690    3.8070   -3.6050 O.3     1  UNL1       -0.5059
@<TRIPOS>BOND
     1     6    36    1
     2    19    36    1
     3     7    37    1
     4    36    37    1
     5    36    35    1
     6     1    38    1
     7    37    38    1
     8    37    20    1
     9    35     5    1
    10    35    33   am
    11    38    39    2
    12    34    33    2
    13    33    32    1
    14    24    45    1
    15    18    51    1
    16     8    40    1
    17    11    43    1
    18    32    27   ar
    19    32    31   ar
    20    48    14    1
    21    48    47    1
    22    39    40    1
    23    39     2    1
    24    54     3    1
    25    54    27    1
    26    45    12    1
    27    45    31    1
    28    45    44    1
    29    27    28   ar
    30    31    30   ar
    31    25    50    1
    32    40    21    1
    33    40    41    1
    34    49    47    1
    35    49    50    1
    36    51    16    1
    37    51    50    1
    38    51    26    1
    39    43    47    1
    40    43    44    1
    41    43    42    1
    42    47    13    1
    43    50    15    1
    44    28     4    1
    45    28    29   ar
    46    30    29   ar
    47    30    52    1
    48    44    46    2
    49    29    53    1
    50    10    42    1
    51    22    41    1
    52    41    42    1
    53    41     9    1
    54    42    23    1
    55    53    17    1
