@<TRIPOS>MOLECULE
11.30033
 54 55 0 0 0
SMALL
GASTEIGER

@<TRIPOS>ATOM
      1 H         -15.6770   -3.7830   -4.1820 H       1  UNL1        0.0569
      2 H         -16.7890   -6.5250   -3.3710 H       1  UNL1        0.0569
      3 H         -15.6510   -3.6200   -9.7420 H       1  UNL1        0.2922
      4 H         -17.7470   -0.9780  -10.6800 H       1  UNL1        0.0691
      5 H         -15.6960   -2.9310   -6.7830 H       1  UNL1        0.1490
      6 H         -13.8430   -4.0910   -6.1560 H       1  UNL1        0.0465
      7 H         -14.2250   -6.1140   -4.8620 H       1  UNL1        0.0322
      8 H         -17.4520   -3.6140   -2.5360 H       1  UNL1        0.0307
      9 H         -19.3840   -4.6480   -1.3850 H       1  UNL1        0.0268
     10 H         -20.6640   -5.6750   -3.2260 H       1  UNL1        0.0274
     11 H         -19.7810   -3.0180   -3.1010 H       1  UNL1        0.0427
     12 H         -18.7430   -4.9270   -6.3460 H       1  UNL1        0.0391
     13 H         -21.7100   -2.5080   -4.6640 H       1  UNL1        0.0914
     14 H         -22.9960   -2.8970   -3.0160 H       1  UNL1        0.2125
     15 H         -23.5360   -3.3910   -5.8920 H       1  UNL1        0.0558
     16 H         -24.8150   -5.3940   -6.6630 H       1  UNL1        0.0252
     17 H         -20.8770   -0.3110   -9.2170 H       1  UNL1        0.2922
     18 H         -23.6510   -6.4530   -5.8320 H       1  UNL1        0.0252
     19 H         -14.2670   -5.3970   -7.2750 H       1  UNL1        0.0465
     20 H         -15.7640   -6.4270   -5.6730 H       1  UNL1        0.0322
     21 H         -16.9450   -4.8090   -1.3470 H       1  UNL1        0.0307
     22 H         -18.8470   -6.2510   -1.8490 H       1  UNL1        0.0268
     23 H         -19.2540   -5.7190   -4.2570 H       1  UNL1        0.0274
     24 H         -20.3640   -4.3550   -6.6190 H       1  UNL1        0.0391
     25 H         -24.0670   -4.3810   -4.5050 H       1  UNL1        0.0558
     26 H         -23.1200   -5.4840   -7.2000 H       1  UNL1        0.0252
     27 C         -17.2500   -2.6070   -9.3630 C.ar    1  UNL1        0.1328
     28 C         -18.0660   -1.5920   -9.8420 C.ar    1  UNL1        0.0235
     29 C         -19.2960   -1.3740   -9.2400 C.ar    1  UNL1        0.1389
     30 C         -19.7260   -2.1620   -8.1590 C.ar    1  UNL1        0.0868
     31 C         -18.9120   -3.1920   -7.6470 C.ar    1  UNL1       -0.0028
     32 C         -17.6600   -3.3910   -8.2690 C.ar    1  UNL1        0.0832
     33 C         -16.7270   -4.4180   -7.7740 C.2     1  UNL1        0.2479
     34 O         -16.8780   -5.5890   -8.0890 O.2     1  UNL1       -0.2701
     35 N         -15.6990   -3.9180   -7.0180 N.am    1  UNL1       -0.3109
     36 C         -14.6520   -4.7590   -6.4720 C.3     1  UNL1        0.0153
     37 C         -15.1090   -5.6320   -5.2970 C.3     1  UNL1       -0.0191
     38 C         -15.8280   -4.8600   -4.2220 C.2     1  UNL1       -0.0865
     39 C         -16.6590   -5.4440   -3.3460 C.2     1  UNL1       -0.0879
     40 C         -17.4450   -4.6880   -2.3160 C.3     1  UNL1       -0.0347
     41 C         -18.8790   -5.2050   -2.1850 C.3     1  UNL1       -0.0488
     42 C         -19.7340   -5.1420   -3.4610 C.3     1  UNL1       -0.0385
     43 C         -20.0560   -3.7040   -3.9150 C.3     1  UNL1        0.0685
     44 C         -19.2350   -3.2520   -5.1260 C.2     1  UNL1        0.1455
     45 C         -19.3420   -4.0180   -6.4430 C.3     1  UNL1        0.0338
     46 O         -18.4790   -2.2780   -5.0190 O.2     1  UNL1       -0.2966
     47 C         -21.5540   -3.4770   -4.1780 C.3     1  UNL1        0.1656
     48 O         -22.2170   -3.4670   -2.9190 O.3     1  UNL1       -0.3663
     49 O         -22.0590   -4.5300   -4.9880 O.3     1  UNL1       -0.3511
     50 C         -23.4140   -4.3530   -5.3830 C.3     1  UNL1        0.0478
     51 C         -23.7790   -5.4840   -6.3250 C.3     1  UNL1       -0.0415
     52 CL        -21.2870   -1.8170   -7.4910 Cl      1  UNL1       -0.0794
     53 O         -20.0620   -0.3590   -9.7500 O.3     1  UNL1       -0.5052
     54 O         -16.0570   -2.7770  -10.0120 O.3     1  UNL1       -0.5059
@<TRIPOS>BOND
     1     4    28    1
     2    54     3    1
     3    54    27    1
     4    28    27   ar
     5    28    29   ar
     6    53    29    1
     7    53    17    1
     8    27    32   ar
     9    29    30   ar
    10    32    33    1
    11    32    31   ar
    12    30    31   ar
    13    30    52    1
    14    34    33    2
    15    33    35   am
    16    31    45    1
    17    19    36    1
    18    26    51    1
    19    35     5    1
    20    35    36    1
    21    16    51    1
    22    24    45    1
    23    36     6    1
    24    36    37    1
    25    45    12    1
    26    45    44    1
    27    51    18    1
    28    51    50    1
    29    15    50    1
    30    20    37    1
    31    50    49    1
    32    50    25    1
    33    37     7    1
    34    37    38    1
    35    44    46    2
    36    44    43    1
    37    49    47    1
    38    13    47    1
    39    23    42    1
    40    38     1    1
    41    38    39    2
    42    47    43    1
    43    47    48    1
    44    43    42    1
    45    43    11    1
    46    42    10    1
    47    42    41    1
    48     2    39    1
    49    39    40    1
    50    14    48    1
    51     8    40    1
    52    40    41    1
    53    40    21    1
    54    41    22    1
    55    41     9    1
