@<TRIPOS>MOLECULE
10.59578
 54 55 0 0 0
SMALL
GASTEIGER

@<TRIPOS>ATOM
      1 H         -17.6720    0.3130   -5.9770 H       1  UNL1        0.0569
      2 H         -15.4700    1.3020   -4.0830 H       1  UNL1        0.0569
      3 H         -14.9620    6.1670   -8.7890 H       1  UNL1        0.2922
      4 H         -14.3940    8.8080   -6.5640 H       1  UNL1        0.0691
      5 H         -16.0520    3.5220   -5.8740 H       1  UNL1        0.1490
      6 H         -15.5460    2.3910   -8.4750 H       1  UNL1        0.0465
      7 H         -14.7560    1.3000   -6.3510 H       1  UNL1        0.0322
      8 H         -16.9530   -0.3030   -2.7330 H       1  UNL1        0.0307
      9 H         -16.4760    2.2620   -2.1650 H       1  UNL1        0.0268
     10 H         -18.3410    3.4950   -1.5030 H       1  UNL1        0.0274
     11 H         -19.7100    4.2140   -3.1960 H       1  UNL1        0.0427
     12 H         -19.1360    5.7680   -4.9320 H       1  UNL1        0.0391
     13 H         -19.0890    2.0080   -5.1860 H       1  UNL1        0.0914
     14 H         -20.8020    2.9120   -6.1590 H       1  UNL1        0.2125
     15 H         -20.3810    0.0800   -5.1510 H       1  UNL1        0.0558
     16 H         -22.4460   -1.0960   -4.3860 H       1  UNL1        0.0252
     17 H         -16.2880    9.3440   -3.6410 H       1  UNL1        0.2922
     18 H         -22.8180    0.2680   -3.3040 H       1  UNL1        0.0252
     19 H         -17.2250    2.1190   -7.9970 H       1  UNL1        0.0465
     20 H         -15.6410    0.2120   -7.4140 H       1  UNL1        0.0322
     21 H         -18.3690    0.3030   -3.5630 H       1  UNL1        0.0307
     22 H         -17.4790    1.2310   -1.1980 H       1  UNL1        0.0268
     23 H         -19.4720    2.2130   -1.7990 H       1  UNL1        0.0274
     24 H         -18.5740    4.6890   -6.1820 H       1  UNL1        0.0391
     25 H         -21.8320    1.0750   -5.4520 H       1  UNL1        0.0558
     26 H         -21.3880   -0.7130   -3.0060 H       1  UNL1        0.0252
     27 C         -15.3310    6.9370   -7.0690 C.ar    1  UNL1        0.1328
     28 C         -15.1410    8.0700   -6.2890 C.ar    1  UNL1        0.0235
     29 C         -15.9180    8.2450   -5.1520 C.ar    1  UNL1        0.1389
     30 C         -16.9090    7.3140   -4.8040 C.ar    1  UNL1        0.0868
     31 C         -17.1310    6.1700   -5.5960 C.ar    1  UNL1       -0.0028
     32 C         -16.2780    5.9620   -6.7060 C.ar    1  UNL1        0.0832
     33 C         -16.3300    4.7380   -7.5400 C.2     1  UNL1        0.2479
     34 O         -16.3800    4.8560   -8.7600 O.2     1  UNL1       -0.2701
     35 N         -16.2150    3.5350   -6.8820 N.am    1  UNL1       -0.3109
     36 C         -16.2120    2.2790   -7.6110 C.3     1  UNL1        0.0153
     37 C         -15.7500    1.0900   -6.7660 C.3     1  UNL1       -0.0191
     38 C         -16.7200    0.7370   -5.6690 C.2     1  UNL1       -0.0865
     39 C         -16.4450    0.9040   -4.3660 C.2     1  UNL1       -0.0879
     40 C         -17.3700    0.5860   -3.2250 C.3     1  UNL1       -0.0347
     41 C         -17.4240    1.7110   -2.1860 C.3     1  UNL1       -0.0488
     42 C         -18.5930    2.7090   -2.2300 C.3     1  UNL1       -0.0385
     43 C         -19.0190    3.4250   -3.5310 C.3     1  UNL1        0.0685
     44 C         -17.8790    4.1740   -4.2220 C.2     1  UNL1        0.1455
     45 C         -18.2580    5.2090   -5.2720 C.3     1  UNL1        0.0338
     46 O         -16.6900    3.9410   -3.9860 O.2     1  UNL1       -0.2966
     47 C         -19.7810    2.5570   -4.5460 C.3     1  UNL1        0.1656
     48 O         -20.5580    3.4210   -5.3690 O.3     1  UNL1       -0.3663
     49 O         -20.6550    1.6750   -3.8560 O.3     1  UNL1       -0.3511
     50 C         -21.1920    0.6430   -4.6760 C.3     1  UNL1        0.0478
     51 C         -22.0100   -0.2830   -3.7980 C.3     1  UNL1       -0.0415
     52 CL        -17.8450    7.6210   -3.3760 Cl      1  UNL1       -0.0794
     53 O         -15.6840    9.3690   -4.4060 O.3     1  UNL1       -0.5052
     54 O         -14.5550    6.8350   -8.1950 O.3     1  UNL1       -0.5059
@<TRIPOS>BOND
     1     3    54    1
     2    34    33    2
     3     6    36    1
     4    54    27    1
     5    19    36    1
     6    36    35    1
     7    36    37    1
     8    33    35   am
     9    33    32    1
    10    20    37    1
    11    27    32   ar
    12    27    28   ar
    13    35     5    1
    14    37     7    1
    15    37    38    1
    16    32    31   ar
    17     4    28    1
    18    28    29   ar
    19    24    45    1
    20    14    48    1
    21     1    38    1
    22    38    39    2
    23    31    45    1
    24    31    30   ar
    25    25    50    1
    26    48    47    1
    27    45    12    1
    28    45    44    1
    29    13    47    1
    30    29    30   ar
    31    29    53    1
    32    15    50    1
    33    30    52    1
    34    50    49    1
    35    50    51    1
    36    47    49    1
    37    47    43    1
    38    53    17    1
    39    16    51    1
    40    39     2    1
    41    39    40    1
    42    44    46    2
    43    44    43    1
    44    51    18    1
    45    51    26    1
    46    21    40    1
    47    43    11    1
    48    43    42    1
    49    40     8    1
    50    40    41    1
    51    42    41    1
    52    42    23    1
    53    42    10    1
    54    41     9    1
    55    41    22    1
