@<TRIPOS>MOLECULE
12.72279
 54 55 0 0 0
SMALL
GASTEIGER

@<TRIPOS>ATOM
      1 H         -19.0760   -3.1120   -6.2340 H       1  UNL1        0.0569
      2 H         -16.1840   -3.6690   -7.1090 H       1  UNL1        0.0569
      3 H         -21.3660    2.0150   -8.0840 H       1  UNL1        0.2922
      4 H         -21.9380    3.2960   -6.4230 H       1  UNL1        0.0691
      5 H         -19.6380   -0.0170   -7.8600 H       1  UNL1        0.1490
      6 H         -16.8520   -1.0840   -8.1930 H       1  UNL1        0.0465
      7 H         -17.8700   -3.2270   -9.0070 H       1  UNL1        0.0322
      8 H         -16.1850   -5.0320   -5.0980 H       1  UNL1        0.0307
      9 H         -15.2980   -2.6270   -4.7430 H       1  UNL1        0.0268
     10 H         -17.7050   -2.3870   -2.8860 H       1  UNL1        0.0274
     11 H         -15.7650   -0.3550   -4.1130 H       1  UNL1        0.0427
     12 H         -17.0620    2.4280   -3.1580 H       1  UNL1        0.0391
     13 H         -16.4330   -0.9370   -1.1700 H       1  UNL1        0.0914
     14 H         -15.1380    0.7250   -0.7740 H       1  UNL1        0.2125
     15 H         -14.8490   -2.2940   -0.1110 H       1  UNL1        0.0558
     16 H         -12.5080   -3.1700   -0.0420 H       1  UNL1        0.0252
     17 H         -21.1470    4.6690   -3.3170 H       1  UNL1        0.2922
     18 H         -12.2250   -2.5240   -1.6760 H       1  UNL1        0.0252
     19 H         -18.0530   -0.8330   -9.4600 H       1  UNL1        0.0465
     20 H         -19.4690   -2.6680   -8.5420 H       1  UNL1        0.0322
     21 H         -17.7620   -4.4560   -4.5780 H       1  UNL1        0.0307
     22 H         -15.7020   -3.5660   -3.3060 H       1  UNL1        0.0268
     23 H         -17.8340   -1.7840   -4.5190 H       1  UNL1        0.0274
     24 H         -16.4850    1.7040   -4.5870 H       1  UNL1        0.0391
     25 H         -13.6620   -0.9790   -0.3370 H       1  UNL1        0.0558
     26 H         -13.3900   -3.8210   -1.4450 H       1  UNL1        0.0252
     27 C         -20.1840    2.0230   -6.5610 C.ar    1  UNL1        0.1328
     28 C         -21.0110    2.9710   -5.9610 C.ar    1  UNL1        0.0235
     29 C         -20.6510    3.5050   -4.7370 C.ar    1  UNL1        0.1389
     30 C         -19.4690    3.1130   -4.0970 C.ar    1  UNL1        0.0868
     31 C         -18.6030    2.1650   -4.6910 C.ar    1  UNL1       -0.0028
     32 C         -18.9790    1.5960   -5.9500 C.ar    1  UNL1        0.0832
     33 C         -18.0970    0.5740   -6.6370 C.2     1  UNL1        0.2479
     34 O         -16.9130    0.4620   -6.3430 O.2     1  UNL1       -0.2701
     35 N         -18.6730   -0.2130   -7.6100 N.am    1  UNL1       -0.3109
     36 C         -17.9220   -1.1540   -8.4200 C.3     1  UNL1        0.0153
     37 C         -18.4050   -2.6020   -8.2810 C.3     1  UNL1       -0.0191
     38 C         -18.2180   -3.1650   -6.9010 C.2     1  UNL1       -0.0865
     39 C         -17.0510   -3.6560   -6.4510 C.2     1  UNL1       -0.0879
     40 C         -16.8220   -4.1410   -5.0460 C.3     1  UNL1       -0.0347
     41 C         -16.1300   -3.0740   -4.1860 C.3     1  UNL1       -0.0488
     42 C         -17.1120   -1.9910   -3.7210 C.3     1  UNL1       -0.0385
     43 C         -16.4640   -0.6530   -3.3230 C.3     1  UNL1        0.0685
     44 C         -17.5740    0.3830   -3.2400 C.2     1  UNL1        0.1455
     45 C         -17.3590    1.7160   -3.9350 C.3     1  UNL1        0.0338
     46 O         -18.6000    0.1620   -2.5870 O.2     1  UNL1       -0.2966
     47 C         -15.7400   -0.6670   -1.9770 C.3     1  UNL1        0.1656
     48 O         -15.2210    0.6370   -1.7370 O.3     1  UNL1       -0.3663
     49 O         -14.6590   -1.5890   -2.0470 O.3     1  UNL1       -0.3511
     50 C         -14.0840   -1.8860   -0.7810 C.3     1  UNL1        0.0478
     51 C         -12.9860   -2.9100   -0.9900 C.3     1  UNL1       -0.0415
     52 CL        -19.1410    3.8400   -2.5530 Cl      1  UNL1       -0.0794
     53 O         -21.5100    4.4200   -4.1890 O.3     1  UNL1       -0.5052
     54 O         -20.5870    1.5170   -7.7740 O.3     1  UNL1       -0.5059
@<TRIPOS>BOND
     1    19    36    1
     2     7    37    1
     3    20    37    1
     4    36    37    1
     5    36     6    1
     6    36    35    1
     7    37    38    1
     8     3    54    1
     9     5    35    1
    10    54    27    1
    11    35    33   am
    12     2    39    1
    13    38    39    2
    14    38     1    1
    15    33    34    2
    16    33    32    1
    17    27    28   ar
    18    27    32   ar
    19    39    40    1
    20     4    28    1
    21    28    29   ar
    22    32    31   ar
    23     8    40    1
    24    40    21    1
    25    40    41    1
    26     9    41    1
    27    29    53    1
    28    29    30   ar
    29    31    30   ar
    30    31    45    1
    31    24    45    1
    32    23    42    1
    33    53    17    1
    34    41    42    1
    35    41    22    1
    36    11    43    1
    37    30    52    1
    38    45    44    1
    39    45    12    1
    40    42    43    1
    41    42    10    1
    42    43    44    1
    43    43    47    1
    44    44    46    2
    45    49    47    1
    46    49    50    1
    47    47    48    1
    48    47    13    1
    49    48    14    1
    50    18    51    1
    51    26    51    1
    52    51    50    1
    53    51    16    1
    54    50    25    1
    55    50    15    1
