@<TRIPOS>MOLECULE
10.95333
 54 55 0 0 0
SMALL
GASTEIGER

@<TRIPOS>ATOM
      1 H         -15.1160    0.4980   -7.5890 H       1  UNL1        0.0569
      2 H         -15.5880    3.4150   -6.7450 H       1  UNL1        0.0569
      3 H         -20.9130   -1.1240   -6.2640 H       1  UNL1        0.2922
      4 H         -21.6620   -2.4730   -3.1490 H       1  UNL1        0.0691
      5 H         -18.2000    1.3430   -4.9400 H       1  UNL1        0.1490
      6 H         -17.9950    2.8320   -6.6120 H       1  UNL1        0.0465
      7 H         -17.0980    2.1420   -8.8670 H       1  UNL1        0.0322
      8 H         -13.0590    3.1340   -6.8020 H       1  UNL1        0.0307
      9 H         -14.1420    3.7040   -4.5780 H       1  UNL1        0.0268
     10 H         -13.8510    1.9400   -2.7890 H       1  UNL1        0.0274
     11 H         -15.9660    1.2760   -4.8650 H       1  UNL1        0.0427
     12 H         -15.8480   -2.0150   -3.9710 H       1  UNL1        0.0391
     13 H         -16.2750    2.3770   -2.0260 H       1  UNL1        0.0914
     14 H         -18.3480    2.2100   -2.4440 H       1  UNL1        0.2125
     15 H         -16.3960    4.7090   -1.9330 H       1  UNL1        0.0558
     16 H         -17.1140    6.8230   -3.0560 H       1  UNL1        0.0252
     17 H         -19.2030   -3.4360   -0.8210 H       1  UNL1        0.2922
     18 H         -17.2350    5.9530   -4.6050 H       1  UNL1        0.0252
     19 H         -19.1280    1.8300   -7.5260 H       1  UNL1        0.0465
     20 H         -17.2690    0.4550   -8.4280 H       1  UNL1        0.0322
     21 H         -13.2220    1.4260   -6.4260 H       1  UNL1        0.0307
     22 H         -12.5780    2.9340   -4.5130 H       1  UNL1        0.0268
     23 H         -13.5700    0.7400   -4.0300 H       1  UNL1        0.0274
     24 H         -16.3070   -0.8570   -5.1540 H       1  UNL1        0.0391
     25 H         -17.9920    4.5130   -2.7090 H       1  UNL1        0.0558
     26 H         -15.6630    6.1500   -3.8390 H       1  UNL1        0.0252
     27 C         -20.2880   -1.4970   -4.4880 C.ar    1  UNL1        0.1328
     28 C         -20.6320   -2.1820   -3.3330 C.ar    1  UNL1        0.0235
     29 C         -19.6320   -2.5320   -2.4410 C.ar    1  UNL1        0.1389
     30 C         -18.2880   -2.1990   -2.6860 C.ar    1  UNL1        0.0868
     31 C         -17.9190   -1.4470   -3.8260 C.ar    1  UNL1       -0.0028
     32 C         -18.9570   -1.0950   -4.7250 C.ar    1  UNL1        0.0832
     33 C         -18.7360   -0.3550   -5.9890 C.2     1  UNL1        0.2479
     34 O         -19.0910   -0.8730   -7.0420 O.2     1  UNL1       -0.2701
     35 N         -18.2770    0.9300   -5.8710 N.am    1  UNL1       -0.3109
     36 C         -18.1600    1.8260   -7.0110 C.3     1  UNL1        0.0153
     37 C         -17.0600    1.4500   -8.0160 C.3     1  UNL1       -0.0191
     38 C         -15.6540    1.4370   -7.4730 C.2     1  UNL1       -0.0865
     39 C         -15.0580    2.4710   -6.8570 C.2     1  UNL1       -0.0879
     40 C         -13.6800    2.4080   -6.2620 C.3     1  UNL1       -0.0347
     41 C         -13.6320    2.7540   -4.7660 C.3     1  UNL1       -0.0488
     42 C         -14.1340    1.6570   -3.8120 C.3     1  UNL1       -0.0385
     43 C         -15.6400    1.3420   -3.8360 C.3     1  UNL1        0.0685
     44 C         -15.8770   -0.0220   -3.2150 C.2     1  UNL1        0.1455
     45 C         -16.4640   -1.1170   -4.1030 C.3     1  UNL1        0.0338
     46 O         -15.6010   -0.2140   -2.0290 O.2     1  UNL1       -0.2966
     47 C         -16.5300    2.3430   -3.0930 C.3     1  UNL1        0.1656
     48 O         -17.8850    1.9190   -3.2500 O.3     1  UNL1       -0.3663
     49 O         -16.3990    3.6230   -3.6940 O.3     1  UNL1       -0.3511
     50 C         -16.9250    4.6750   -2.8920 C.3     1  UNL1        0.0478
     51 C         -16.7260    5.9800   -3.6350 C.3     1  UNL1       -0.0415
     52 CL        -17.1160   -2.8290   -1.5730 Cl      1  UNL1       -0.0794
     53 O         -20.0120   -3.2430   -1.3330 O.3     1  UNL1       -0.5052
     54 O         -21.3060   -1.2590   -5.3750 O.3     1  UNL1       -0.5059
@<TRIPOS>BOND
     1     7    37    1
     2    20    37    1
     3    37    38    1
     4    37    36    1
     5     1    38    1
     6    19    36    1
     7    38    39    2
     8    34    33    2
     9    36     6    1
    10    36    35    1
    11    39     2    1
    12    39    40    1
    13     8    40    1
    14    21    40    1
    15     3    54    1
    16    40    41    1
    17    33    35   am
    18    33    32    1
    19    35     5    1
    20    54    27    1
    21    24    45    1
    22    11    43    1
    23    41     9    1
    24    41    22    1
    25    41    42    1
    26    32    27   ar
    27    32    31   ar
    28    18    51    1
    29    27    28   ar
    30    45    12    1
    31    45    31    1
    32    45    44    1
    33    23    42    1
    34    26    51    1
    35    43    42    1
    36    43    44    1
    37    43    47    1
    38    31    30   ar
    39    42    10    1
    40    49    47    1
    41    49    50    1
    42    51    16    1
    43    51    50    1
    44    28     4    1
    45    28    29   ar
    46    48    47    1
    47    48    14    1
    48    44    46    2
    49    47    13    1
    50    50    25    1
    51    50    15    1
    52    30    29   ar
    53    30    52    1
    54    29    53    1
    55    53    17    1
