@<TRIPOS>MOLECULE
8.61372
 54 55 0 0 0
SMALL
GASTEIGER

@<TRIPOS>ATOM
      1 H          -8.4220   -3.4420    0.3150 H       1  UNL1        0.0569
      2 H         -10.9100   -3.5360    2.1120 H       1  UNL1        0.0569
      3 H         -12.2500   -9.0570    0.6610 H       1  UNL1        0.2922
      4 H         -15.0650   -9.5110   -1.3580 H       1  UNL1        0.0691
      5 H         -10.7650   -5.8600   -1.4150 H       1  UNL1        0.1490
      6 H          -8.5940   -5.8800   -0.7850 H       1  UNL1        0.0465
      7 H          -8.0240   -5.5090    1.6670 H       1  UNL1        0.0322
      8 H          -9.4110   -1.2090    0.7260 H       1  UNL1        0.0307
      9 H         -11.7640   -0.4320    0.0330 H       1  UNL1        0.0268
     10 H         -10.2060   -2.6410   -1.3070 H       1  UNL1        0.0274
     11 H         -11.7150   -2.3700   -3.3010 H       1  UNL1        0.0427
     12 H         -12.5180   -4.3650    0.0330 H       1  UNL1        0.0391
     13 H         -13.9590   -1.7580   -1.3210 H       1  UNL1        0.0914
     14 H         -15.1500   -1.8790   -3.1250 H       1  UNL1        0.2125
     15 H         -14.5850    0.4800   -1.2420 H       1  UNL1        0.0558
     16 H         -14.5380    2.7430   -2.2970 H       1  UNL1        0.0252
     17 H         -16.7940   -6.8800   -2.9360 H       1  UNL1        0.2922
     18 H         -13.3260    2.1680   -3.4670 H       1  UNL1        0.0252
     19 H          -8.9750   -7.2480    0.2730 H       1  UNL1        0.0465
     20 H          -9.7290   -5.6360    2.0740 H       1  UNL1        0.0322
     21 H         -10.6110   -1.1060    2.0080 H       1  UNL1        0.0307
     22 H         -12.3400   -2.0520    0.3790 H       1  UNL1        0.0268
     23 H         -10.5550   -1.0150   -1.8270 H       1  UNL1        0.0274
     24 H         -13.9780   -3.7890   -0.7000 H       1  UNL1        0.0391
     25 H         -15.0070    0.3880   -2.9750 H       1  UNL1        0.0558
     26 H         -12.9110    2.2610   -1.7600 H       1  UNL1        0.0252
     27 C         -13.4780   -8.2740   -0.5920 C.ar    1  UNL1        0.1328
     28 C         -14.6590   -8.5060   -1.2840 C.ar    1  UNL1        0.0235
     29 C         -15.3150   -7.4360   -1.8710 C.ar    1  UNL1        0.1389
     30 C         -14.8150   -6.1300   -1.7530 C.ar    1  UNL1        0.0868
     31 C         -13.6160   -5.8690   -1.0530 C.ar    1  UNL1       -0.0028
     32 C         -12.9230   -6.9790   -0.5090 C.ar    1  UNL1        0.0832
     33 C         -11.6140   -6.8780    0.1840 C.2     1  UNL1        0.2479
     34 O         -11.4640   -7.4830    1.2420 O.2     1  UNL1       -0.2701
     35 N         -10.6060   -6.2130   -0.4700 N.am    1  UNL1       -0.3109
     36 C          -9.2420   -6.2120    0.0350 C.3     1  UNL1        0.0153
     37 C          -9.0350   -5.3380    1.2800 C.3     1  UNL1       -0.0191
     38 C          -9.1710   -3.8700    0.9790 C.2     1  UNL1       -0.0865
     39 C         -10.1620   -3.1000    1.4530 C.2     1  UNL1       -0.0879
     40 C         -10.3450   -1.6510    1.0950 C.3     1  UNL1       -0.0347
     41 C         -11.4600   -1.4850    0.0570 C.3     1  UNL1       -0.0488
     42 C         -11.0080   -1.8970   -1.3540 C.3     1  UNL1       -0.0385
     43 C         -12.1140   -2.4390   -2.2770 C.3     1  UNL1        0.0685
     44 C         -12.2910   -3.9430   -2.0470 C.2     1  UNL1        0.1455
     45 C         -13.1220   -4.4440   -0.8750 C.3     1  UNL1        0.0338
     46 O         -11.6170   -4.7480   -2.7070 O.2     1  UNL1       -0.2966
     47 C         -13.4220   -1.6420   -2.2670 C.3     1  UNL1        0.1656
     48 O         -14.2310   -2.1180   -3.3270 O.3     1  UNL1       -0.3663
     49 O         -13.1050   -0.2700   -2.4790 O.3     1  UNL1       -0.3511
     50 C         -14.2050    0.6060   -2.2620 C.3     1  UNL1        0.0478
     51 C         -13.7240    2.0310   -2.4560 C.3     1  UNL1       -0.0415
     52 CL        -15.7470   -4.8540   -2.4690 Cl      1  UNL1       -0.0794
     53 O         -16.4740   -7.7140   -2.5450 O.3     1  UNL1       -0.5052
     54 O         -12.9030   -9.3710   -0.0030 O.3     1  UNL1       -0.5059
@<TRIPOS>BOND
     1    18    51    1
     2    48    14    1
     3    48    47    1
     4    11    43    1
     5    25    50    1
     6    17    53    1
     7    46    44    2
     8    53    29    1
     9    49    47    1
    10    49    50    1
    11    52    30    1
    12    51    16    1
    13    51    50    1
    14    51    26    1
    15    43    47    1
    16    43    44    1
    17    43    42    1
    18    47    13    1
    19    50    15    1
    20    44    45    1
    21    29    30   ar
    22    29    28   ar
    23    23    42    1
    24    30    31   ar
    25     5    35    1
    26     4    28    1
    27    42    10    1
    28    42    41    1
    29    28    27   ar
    30    31    45    1
    31    31    32   ar
    32    45    24    1
    33    45    12    1
    34     6    36    1
    35    27    32   ar
    36    27    54    1
    37    32    33    1
    38    35    36    1
    39    35    33   am
    40    54     3    1
    41     9    41    1
    42    36    19    1
    43    36    37    1
    44    41    22    1
    45    41    40    1
    46    33    34    2
    47     1    38    1
    48     8    40    1
    49    38    37    1
    50    38    39    2
    51    40    39    1
    52    40    21    1
    53    37     7    1
    54    37    20    1
    55    39     2    1
