@<TRIPOS>MOLECULE
17.51577
 54 55 0 0 0
SMALL
GASTEIGER

@<TRIPOS>ATOM
      1 H         -16.7610   -2.2800   -6.7660 H       1  UNL1        0.0569
      2 H         -18.0970    0.0660   -5.2960 H       1  UNL1        0.0569
      3 H         -18.7220   -4.7690   -0.6870 H       1  UNL1        0.2922
      4 H         -17.0870   -7.7810   -1.2070 H       1  UNL1        0.0691
      5 H         -18.9100   -2.0720   -3.2770 H       1  UNL1        0.1490
      6 H         -19.4390   -4.1930   -4.6410 H       1  UNL1        0.0465
      7 H         -19.5880   -1.8670   -5.5970 H       1  UNL1        0.0322
      8 H         -16.4330    1.1850   -6.8100 H       1  UNL1        0.0307
      9 H         -15.9400    1.4590   -4.3650 H       1  UNL1        0.0268
     10 H         -13.6580    0.1780   -3.7950 H       1  UNL1        0.0274
     11 H         -16.4130   -1.0930   -3.4540 H       1  UNL1        0.0427
     12 H         -15.7350   -3.0450   -4.4660 H       1  UNL1        0.0391
     13 H         -15.7870   -0.6470   -0.9440 H       1  UNL1        0.0914
     14 H         -17.1210    0.9630   -1.1220 H       1  UNL1        0.2125
     15 H         -14.2660    0.4320    0.4120 H       1  UNL1        0.0558
     16 H         -13.0230    2.5500    0.8620 H       1  UNL1        0.0252
     17 H         -13.9620   -8.0410   -2.8060 H       1  UNL1        0.2922
     18 H         -13.2260    3.0270   -0.8410 H       1  UNL1        0.0252
     19 H         -17.7060   -4.2250   -4.9620 H       1  UNL1        0.0465
     20 H         -19.0820   -3.0730   -6.7720 H       1  UNL1        0.0322
     21 H         -15.4430   -0.2620   -6.8650 H       1  UNL1        0.0307
     22 H         -14.5380    1.5230   -5.4130 H       1  UNL1        0.0268
     23 H         -14.2360   -1.0210   -4.9090 H       1  UNL1        0.0274
     24 H         -14.1060   -3.5420   -4.1700 H       1  UNL1        0.0391
     25 H         -15.2650    1.8560    0.0090 H       1  UNL1        0.0558
     26 H         -12.2430    1.6230   -0.4430 H       1  UNL1        0.0252
     27 C         -17.3940   -5.7090   -1.7020 C.ar    1  UNL1        0.1328
     28 C         -16.6960   -6.9070   -1.7200 C.ar    1  UNL1        0.0235
     29 C         -15.4760   -6.9650   -2.3780 C.ar    1  UNL1        0.1389
     30 C         -14.9370   -5.8350   -3.0170 C.ar    1  UNL1        0.0868
     31 C         -15.6360   -4.6120   -3.0240 C.ar    1  UNL1       -0.0028
     32 C         -16.9000   -4.5850   -2.3830 C.ar    1  UNL1        0.0832
     33 C         -17.7230   -3.3640   -2.3330 C.2     1  UNL1        0.2479
     34 O         -17.8550   -2.7880   -1.2570 O.2     1  UNL1       -0.2701
     35 N         -18.3640   -2.9100   -3.4500 N.am    1  UNL1       -0.3109
     36 C         -18.5470   -3.5630   -4.7400 C.3     1  UNL1        0.0153
     37 C         -18.7660   -2.5430   -5.8660 C.3     1  UNL1       -0.0191
     38 C         -17.5270   -1.7540   -6.1990 C.2     1  UNL1       -0.0865
     39 C         -17.3330   -0.4690   -5.8580 C.2     1  UNL1       -0.0879
     40 C         -16.1060    0.3230   -6.2150 C.3     1  UNL1       -0.0347
     41 C         -15.3050    0.8460   -5.0120 C.3     1  UNL1       -0.0488
     42 C         -14.5790   -0.2460   -4.2130 C.3     1  UNL1       -0.0385
     43 C         -15.4120   -0.8700   -3.0780 C.3     1  UNL1        0.0685
     44 C         -14.8200   -2.2250   -2.6950 C.2     1  UNL1        0.1455
     45 C         -15.0630   -3.3670   -3.6700 C.3     1  UNL1        0.0338
     46 O         -14.1610   -2.4020   -1.6690 O.2     1  UNL1       -0.2966
     47 C         -15.6020   -0.0090   -1.8180 C.3     1  UNL1        0.1656
     48 O         -16.7600    0.8030   -2.0090 O.3     1  UNL1       -0.3663
     49 O         -14.4740    0.8290   -1.6080 O.3     1  UNL1       -0.3511
     50 C         -14.3700    1.2870   -0.2650 C.3     1  UNL1        0.0478
     51 C         -13.1460    2.1750   -0.1580 C.3     1  UNL1       -0.0415
     52 CL        -13.3990   -6.0190   -3.7970 Cl      1  UNL1       -0.0794
     53 O         -14.8210   -8.1690   -2.3610 O.3     1  UNL1       -0.5052
     54 O         -18.5590   -5.6880   -0.9830 O.3     1  UNL1       -0.5059
@<TRIPOS>BOND
     1    21    40    1
     2     8    40    1
     3    20    37    1
     4     1    38    1
     5    40    39    1
     6    40    41    1
     7    38    37    1
     8    38    39    2
     9    37     7    1
    10    37    36    1
    11    39     2    1
    12    22    41    1
    13    41     9    1
    14    41    42    1
    15    19    36    1
    16    23    42    1
    17    36     6    1
    18    36    35    1
    19    12    45    1
    20    42    10    1
    21    42    43    1
    22    24    45    1
    23    52    30    1
    24    45    31    1
    25    45    44    1
    26    11    43    1
    27    35     5    1
    28    35    33   am
    29    43    44    1
    30    43    47    1
    31    31    30   ar
    32    31    32   ar
    33    30    29   ar
    34    17    53    1
    35    44    46    2
    36    32    33    1
    37    32    27   ar
    38    29    53    1
    39    29    28   ar
    40    33    34    2
    41    48    47    1
    42    48    14    1
    43    47    49    1
    44    47    13    1
    45    28    27   ar
    46    28     4    1
    47    27    54    1
    48    49    50    1
    49    54     3    1
    50    18    51    1
    51    26    51    1
    52    50    51    1
    53    50    25    1
    54    50    15    1
    55    51    16    1
