@<TRIPOS>MOLECULE
15.78962
 54 55 0 0 0
SMALL
GASTEIGER

@<TRIPOS>ATOM
      1 H         -11.9670   -4.9860    1.2010 H       1  UNL1        0.0569
      2 H         -14.7790   -5.0460    2.4320 H       1  UNL1        0.0569
      3 H         -12.4740   -8.0900   -2.0020 H       1  UNL1        0.2922
      4 H         -13.0940   -6.0280   -4.7250 H       1  UNL1        0.0691
      5 H         -15.3520   -6.6150    0.7210 H       1  UNL1        0.1490
      6 H         -13.7470   -8.8000    1.7920 H       1  UNL1        0.0465
      7 H         -11.9640   -7.2940    1.3100 H       1  UNL1        0.0322
      8 H         -13.0640   -2.8730    1.0500 H       1  UNL1        0.0307
      9 H         -14.8150   -4.0050   -0.4750 H       1  UNL1        0.0268
     10 H         -16.8470   -2.1430    0.6430 H       1  UNL1        0.0274
     11 H         -17.1540   -3.8130   -1.3040 H       1  UNL1        0.0427
     12 H         -17.1200   -7.5440   -0.6730 H       1  UNL1        0.0391
     13 H         -19.1500   -4.0070    1.0320 H       1  UNL1        0.0914
     14 H         -20.5610   -4.6090   -0.5140 H       1  UNL1        0.2125
     15 H         -20.3750   -2.0490    1.3230 H       1  UNL1        0.0558
     16 H         -21.4470   -0.0510    0.2790 H       1  UNL1        0.0252
     17 H         -16.2180   -4.5840   -5.4540 H       1  UNL1        0.2922
     18 H         -20.5010   -0.3220   -1.2040 H       1  UNL1        0.0252
     19 H         -14.6890   -7.5650    2.6500 H       1  UNL1        0.0465
     20 H         -12.3130   -7.0410    3.0110 H       1  UNL1        0.0322
     21 H         -14.3570   -2.5660    2.2030 H       1  UNL1        0.0307
     22 H         -14.8430   -2.2580   -0.3460 H       1  UNL1        0.0268
     23 H         -16.6030   -3.5180    1.6920 H       1  UNL1        0.0274
     24 H         -18.1180   -6.5240   -1.6240 H       1  UNL1        0.0391
     25 H         -21.2140   -2.4900   -0.1890 H       1  UNL1        0.0558
     26 H         -19.6750    0.1140    0.2870 H       1  UNL1        0.0252
     27 C         -13.6930   -6.8510   -2.8280 C.ar    1  UNL1        0.1328
     28 C         -13.8940   -6.1300   -3.9980 C.ar    1  UNL1        0.0235
     29 C         -15.1340   -5.5720   -4.2360 C.ar    1  UNL1        0.1389
     30 C         -16.1760   -5.7170   -3.3090 C.ar    1  UNL1        0.0868
     31 C         -15.9870   -6.4090   -2.0820 C.ar    1  UNL1       -0.0028
     32 C         -14.7090   -6.9940   -1.8470 C.ar    1  UNL1        0.0832
     33 C         -14.2960   -7.7900   -0.6420 C.2     1  UNL1        0.2479
     34 O         -13.4900   -8.7090   -0.7920 O.2     1  UNL1       -0.2701
     35 N         -14.7000   -7.3740    0.5960 N.am    1  UNL1       -0.3109
     36 C         -13.9980   -7.7340    1.8180 C.3     1  UNL1        0.0153
     37 C         -12.7170   -6.8950    2.0030 C.3     1  UNL1       -0.0191
     38 C         -12.8300   -5.4140    1.7100 C.2     1  UNL1       -0.0865
     39 C         -13.9100   -4.6410    1.9180 C.2     1  UNL1       -0.0879
     40 C         -14.0400   -3.2350    1.3950 C.3     1  UNL1       -0.0347
     41 C         -15.0260   -3.1820    0.2180 C.3     1  UNL1       -0.0488
     42 C         -16.5030   -3.1850    0.6520 C.3     1  UNL1       -0.0385
     43 C         -17.4040   -4.0460   -0.2680 C.3     1  UNL1        0.0685
     44 C         -17.1690   -5.5220    0.0110 C.2     1  UNL1        0.1455
     45 C         -17.1490   -6.5410   -1.1190 C.3     1  UNL1        0.0338
     46 O         -16.9990   -5.9160    1.1720 O.2     1  UNL1       -0.2966
     47 C         -18.8920   -3.7710   -0.0090 C.3     1  UNL1        0.1656
     48 O         -19.6620   -4.5840   -0.8800 O.3     1  UNL1       -0.3663
     49 O         -19.1460   -2.4020   -0.3040 O.3     1  UNL1       -0.3511
     50 C         -20.3750   -1.9290    0.2350 C.3     1  UNL1        0.0478
     51 C         -20.5140   -0.4610   -0.1180 C.3     1  UNL1       -0.0415
     52 CL        -17.7120   -5.0450   -3.7690 Cl      1  UNL1       -0.0794
     53 O         -15.2940   -4.8960   -5.4160 O.3     1  UNL1       -0.5052
     54 O         -12.4400   -7.4040   -2.7080 O.3     1  UNL1       -0.5059
@<TRIPOS>BOND
     1    17    53    1
     2    53    29    1
     3     4    28    1
     4    29    28   ar
     5    29    30   ar
     6    28    27   ar
     7    52    30    1
     8    30    31   ar
     9    27    54    1
    10    27    32   ar
    11    54     3    1
    12    31    32   ar
    13    31    45    1
    14    32    33    1
    15    24    45    1
    16    11    43    1
    17    18    51    1
    18    45    12    1
    19    45    44    1
    20    48    14    1
    21    48    47    1
    22    34    33    2
    23    33    35   am
    24     9    41    1
    25    22    41    1
    26    49    47    1
    27    49    50    1
    28    43    47    1
    29    43    44    1
    30    43    42    1
    31    25    50    1
    32    51    50    1
    33    51    16    1
    34    51    26    1
    35    47    13    1
    36    44    46    2
    37    41    42    1
    38    41    40    1
    39    50    15    1
    40    35     5    1
    41    35    36    1
    42    10    42    1
    43    42    23    1
    44     8    40    1
    45     1    38    1
    46     7    37    1
    47    40    39    1
    48    40    21    1
    49    38    39    2
    50    38    37    1
    51     6    36    1
    52    36    37    1
    53    36    19    1
    54    39     2    1
    55    37    20    1
