@<TRIPOS>MOLECULE
12.87490
 54 55 0 0 0
SMALL
GASTEIGER

@<TRIPOS>ATOM
      1 H         -14.6230   -1.4550   -7.9110 H       1  UNL1        0.0569
      2 H         -15.0850   -2.3520   -5.0090 H       1  UNL1        0.0569
      3 H         -20.7140    1.1250   -7.0290 H       1  UNL1        0.2922
      4 H         -21.1370    4.5800   -6.7740 H       1  UNL1        0.0691
      5 H         -16.6900    1.3030   -7.3370 H       1  UNL1        0.1490
      6 H         -16.6480   -0.4210   -8.8210 H       1  UNL1        0.0465
      7 H         -16.8890   -2.7840   -7.8180 H       1  UNL1        0.0322
      8 H         -12.5920   -1.4940   -6.6510 H       1  UNL1        0.0307
      9 H         -11.9640    0.0610   -4.9080 H       1  UNL1        0.0268
     10 H         -14.9570    0.3530   -5.4440 H       1  UNL1        0.0274
     11 H         -13.2040    2.7680   -5.1360 H       1  UNL1        0.0427
     12 H         -16.7460    1.3590   -4.5290 H       1  UNL1        0.0391
     13 H         -12.9230    1.8100   -2.9540 H       1  UNL1        0.0914
     14 H         -14.4930    0.8820   -1.8590 H       1  UNL1        0.2125
     15 H         -12.8300    3.3760   -1.2110 H       1  UNL1        0.0558
     16 H         -13.9450    5.2340    0.0320 H       1  UNL1        0.0252
     17 H         -18.9210    6.6960   -5.0330 H       1  UNL1        0.2922
     18 H         -15.2160    5.2980   -1.2110 H       1  UNL1        0.0252
     19 H         -18.2570   -0.9130   -8.3010 H       1  UNL1        0.0465
     20 H         -17.1760   -2.0290   -6.2450 H       1  UNL1        0.0322
     21 H         -12.5640   -2.4190   -5.1550 H       1  UNL1        0.0307
     22 H         -13.2480   -0.5120   -3.8420 H       1  UNL1        0.0268
     23 H         -13.6990    0.9200   -6.5170 H       1  UNL1        0.0274
     24 H         -16.6000    2.8160   -3.5760 H       1  UNL1        0.0391
     25 H         -14.5080    2.9450   -0.7820 H       1  UNL1        0.0558
     26 H         -13.5640    5.7300   -1.6350 H       1  UNL1        0.0252
     27 C         -19.9290    2.8110   -6.5520 C.ar    1  UNL1        0.1328
     28 C         -20.2210    4.1570   -6.3730 C.ar    1  UNL1        0.0235
     29 C         -19.3290    4.9500   -5.6690 C.ar    1  UNL1        0.1389
     30 C         -18.1600    4.4050   -5.1170 C.ar    1  UNL1        0.0868
     31 C         -17.8480    3.0370   -5.2860 C.ar    1  UNL1       -0.0028
     32 C         -18.7310    2.2510   -6.0610 C.ar    1  UNL1        0.0832
     33 C         -18.4910    0.8300   -6.4250 C.2     1  UNL1        0.2479
     34 O         -19.3920    0.0180   -6.2310 O.2     1  UNL1       -0.2701
     35 N         -17.3470    0.5530   -7.1430 N.am    1  UNL1       -0.3109
     36 C         -17.2510   -0.6670   -7.9390 C.3     1  UNL1        0.0153
     37 C         -16.6770   -1.8950   -7.2120 C.3     1  UNL1       -0.0191
     38 C         -15.1830   -1.8090   -7.0470 C.2     1  UNL1       -0.0865
     39 C         -14.5350   -2.0240   -5.8890 C.2     1  UNL1       -0.0879
     40 C         -13.0960   -1.6220   -5.6850 C.3     1  UNL1       -0.0347
     41 C         -12.9980   -0.3020   -4.8880 C.3     1  UNL1       -0.0488
     42 C         -13.9430    0.7620   -5.4570 C.3     1  UNL1       -0.0385
     43 C         -14.0200    2.1290   -4.7720 C.3     1  UNL1        0.0685
     44 C         -15.3150    2.7550   -5.3100 C.2     1  UNL1        0.1455
     45 C         -16.6320    2.4440   -4.6050 C.3     1  UNL1        0.0338
     46 O         -15.2980    3.3380   -6.4020 O.2     1  UNL1       -0.2966
     47 C         -13.9360    2.1170   -3.2440 C.3     1  UNL1        0.1656
     48 O         -14.8630    1.1930   -2.7020 O.3     1  UNL1       -0.3663
     49 O         -14.1880    3.4320   -2.7710 O.3     1  UNL1       -0.3511
     50 C         -13.8850    3.6070   -1.3920 C.3     1  UNL1        0.0478
     51 C         -14.1670    5.0500   -1.0230 C.3     1  UNL1       -0.0415
     52 CL        -17.1340    5.4660   -4.2020 Cl      1  UNL1       -0.0794
     53 O         -19.6530    6.2720   -5.5200 O.3     1  UNL1       -0.5052
     54 O         -20.8730    2.0750   -7.2240 O.3     1  UNL1       -0.5059
@<TRIPOS>BOND
     1     6    36    1
     2    19    36    1
     3    36    37    1
     4    36    35    1
     5     1    38    1
     6     7    37    1
     7     5    35    1
     8    54     3    1
     9    54    27    1
    10    37    38    1
    11    37    20    1
    12    35    33   am
    13    38    39    2
    14     4    28    1
    15     8    40    1
    16    27    28   ar
    17    27    32   ar
    18    23    42    1
    19    33    34    2
    20    33    32    1
    21    46    44    2
    22    28    29   ar
    23    32    31   ar
    24    39    40    1
    25    39     2    1
    26    40    21    1
    27    40    41    1
    28    29    53    1
    29    29    30   ar
    30    53    17    1
    31    42    10    1
    32    42    41    1
    33    42    43    1
    34    44    43    1
    35    44    45    1
    36    31    30   ar
    37    31    45    1
    38    11    43    1
    39    30    52    1
    40     9    41    1
    41    41    22    1
    42    43    47    1
    43    45    12    1
    44    45    24    1
    45    47    13    1
    46    47    49    1
    47    47    48    1
    48    49    50    1
    49    48    14    1
    50    26    51    1
    51    50    15    1
    52    50    51    1
    53    50    25    1
    54    18    51    1
    55    51    16    1
