@<TRIPOS>MOLECULE
6.86721
 54 55 0 0 0
SMALL
GASTEIGER

@<TRIPOS>ATOM
      1 H         -10.3010    1.1380  -10.3310 H       1  UNL1        0.0569
      2 H         -12.0840    2.5470  -12.3930 H       1  UNL1        0.0569
      3 H         -12.6330   -3.2590  -15.1760 H       1  UNL1        0.2922
      4 H         -16.0360   -4.0660  -15.2000 H       1  UNL1        0.0691
      5 H         -13.1690    0.3290  -13.2960 H       1  UNL1        0.1490
      6 H         -11.2590    1.3480  -14.1270 H       1  UNL1        0.0465
      7 H          -9.2200    0.8120  -12.6840 H       1  UNL1        0.0322
      8 H         -13.1780    3.5500  -10.6330 H       1  UNL1        0.0307
      9 H         -12.9630    3.1420   -8.2880 H       1  UNL1        0.0268
     10 H         -13.3650    0.8320   -7.9150 H       1  UNL1        0.0274
     11 H         -14.7760    2.2120   -9.9740 H       1  UNL1        0.0427
     12 H         -13.0840   -1.1580  -10.9930 H       1  UNL1        0.0391
     13 H         -16.6590    0.6450   -9.4660 H       1  UNL1        0.0914
     14 H         -16.9190    1.7260   -7.6560 H       1  UNL1        0.2125
     15 H         -17.4790   -1.0260   -8.0260 H       1  UNL1        0.0558
     16 H         -17.0080   -2.8850   -6.4290 H       1  UNL1        0.0252
     17 H         -18.2680   -3.1970  -12.6170 H       1  UNL1        0.2922
     18 H         -15.2750   -2.4760   -6.4670 H       1  UNL1        0.0252
     19 H         -10.5290   -0.2250  -14.4390 H       1  UNL1        0.0465
     20 H         -10.0990   -0.5520  -12.0040 H       1  UNL1        0.0322
     21 H         -11.5660    4.0070  -10.1530 H       1  UNL1        0.0307
     22 H         -11.4610    2.2620   -8.4730 H       1  UNL1        0.0268
     23 H         -12.5680    0.3330   -9.3800 H       1  UNL1        0.0274
     24 H         -14.5300   -1.5760  -10.1360 H       1  UNL1        0.0391
     25 H         -16.6780   -0.4130   -6.5550 H       1  UNL1        0.0558
     26 H         -16.0570   -3.0820   -7.9210 H       1  UNL1        0.0252
     27 C         -14.3620   -2.9860  -14.3850 C.ar    1  UNL1        0.1328
     28 C         -15.6740   -3.4370  -14.3910 C.ar    1  UNL1        0.0235
     29 C         -16.5130   -3.0740  -13.3500 C.ar    1  UNL1        0.1389
     30 C         -16.0460   -2.2890  -12.2830 C.ar    1  UNL1        0.0868
     31 C         -14.7110   -1.8330  -12.2470 C.ar    1  UNL1       -0.0028
     32 C         -13.8890   -2.1490  -13.3540 C.ar    1  UNL1        0.0832
     33 C         -12.5120   -1.6330  -13.5140 C.2     1  UNL1        0.2479
     34 O         -11.6160   -2.4220  -13.7970 O.2     1  UNL1       -0.2701
     35 N         -12.3590   -0.2700  -13.4530 N.am    1  UNL1       -0.3109
     36 C         -11.0720    0.3620  -13.6900 C.3     1  UNL1        0.0153
     37 C         -10.2220    0.4580  -12.4170 C.3     1  UNL1       -0.0191
     38 C         -10.7420    1.3380  -11.3060 C.2     1  UNL1       -0.0865
     39 C         -11.6650    2.3070  -11.4180 C.2     1  UNL1       -0.0879
     40 C         -12.2190    3.1370  -10.2960 C.3     1  UNL1       -0.0347
     41 C         -12.4350    2.4410   -8.9470 C.3     1  UNL1       -0.0488
     42 C         -13.2140    1.1130   -8.9650 C.3     1  UNL1       -0.0385
     43 C         -14.5670    1.1680   -9.7060 C.3     1  UNL1        0.0685
     44 C         -14.5450    0.4000  -11.0290 C.2     1  UNL1        0.1455
     45 C         -14.1740   -1.0780  -11.0400 C.3     1  UNL1        0.0338
     46 O         -14.7700    0.9940  -12.0920 O.2     1  UNL1       -0.2966
     47 C         -15.7590    0.7230   -8.8450 C.3     1  UNL1        0.1656
     48 O         -15.9690    1.7230   -7.8560 O.3     1  UNL1       -0.3663
     49 O         -15.4730   -0.5260   -8.2310 O.3     1  UNL1       -0.3511
     50 C         -16.5490   -1.0330   -7.4480 C.3     1  UNL1        0.0478
     51 C         -16.2090   -2.4520   -7.0380 C.3     1  UNL1       -0.0415
     52 CL        -17.1700   -1.9170  -11.0180 Cl      1  UNL1       -0.0794
     53 O         -17.8020   -3.5340  -13.4050 O.3     1  UNL1       -0.5052
     54 O         -13.5730   -3.4040  -15.4250 O.3     1  UNL1       -0.5059
@<TRIPOS>BOND
     1    54     3    1
     2    54    27    1
     3     4    28    1
     4    19    36    1
     5    28    27   ar
     6    28    29   ar
     7    27    32   ar
     8     6    36    1
     9    34    33    2
    10    36    35    1
    11    36    37    1
    12    33    35   am
    13    33    32    1
    14    35     5    1
    15    53    29    1
    16    53    17    1
    17    32    31   ar
    18    29    30   ar
    19     7    37    1
    20    37    20    1
    21    37    38    1
    22     2    39    1
    23    30    31   ar
    24    30    52    1
    25    31    45    1
    26    46    44    2
    27    39    38    2
    28    39    40    1
    29    38     1    1
    30    45    44    1
    31    45    12    1
    32    45    24    1
    33    44    43    1
    34     8    40    1
    35    40    21    1
    36    40    41    1
    37    11    43    1
    38    43    42    1
    39    43    47    1
    40    13    47    1
    41    23    42    1
    42    42    41    1
    43    42    10    1
    44    41    22    1
    45    41     9    1
    46    47    49    1
    47    47    48    1
    48    49    50    1
    49    15    50    1
    50    26    51    1
    51    48    14    1
    52    50    51    1
    53    50    25    1
    54    51    18    1
    55    51    16    1
