@<TRIPOS>MOLECULE
25.01819
 54 55 0 0 0
SMALL
GASTEIGER

@<TRIPOS>ATOM
      1 H         -16.7100   -3.4980   -7.7350 H       1  UNL1        0.0569
      2 H         -19.6060   -2.5340   -8.0700 H       1  UNL1        0.0569
      3 H         -17.0060   -4.3020   -1.0900 H       1  UNL1        0.2922
      4 H         -13.7890   -3.0110   -1.5730 H       1  UNL1        0.0691
      5 H         -19.3700   -4.7580   -4.1100 H       1  UNL1        0.1490
      6 H         -17.4500   -5.7750   -5.1510 H       1  UNL1        0.0465
      7 H         -19.4280   -4.4850   -6.5900 H       1  UNL1        0.0322
      8 H         -18.1560   -1.7450  -10.1000 H       1  UNL1        0.0307
      9 H         -19.5850   -0.0450   -8.9000 H       1  UNL1        0.0268
     10 H         -17.9590    1.7380   -7.7590 H       1  UNL1        0.0274
     11 H         -19.5140   -0.4840   -6.4990 H       1  UNL1        0.0427
     12 H         -18.7340   -1.6830   -4.4850 H       1  UNL1        0.0391
     13 H         -19.3590    2.4640   -5.7210 H       1  UNL1        0.0914
     14 H         -20.9470    1.8920   -4.4620 H       1  UNL1        0.2125
     15 H         -20.8500    3.8630   -6.9310 H       1  UNL1        0.0558
     16 H         -22.8710    4.0210   -8.3970 H       1  UNL1        0.0252
     17 H         -13.0280   -0.5160   -3.9400 H       1  UNL1        0.2922
     18 H         -22.8220    2.2600   -8.6450 H       1  UNL1        0.0252
     19 H         -16.6720   -4.2150   -5.3260 H       1  UNL1        0.0465
     20 H         -18.1770   -5.5260   -7.2630 H       1  UNL1        0.0322
     21 H         -16.8430   -1.4400   -8.9730 H       1  UNL1        0.0307
     22 H         -18.1430    0.5640   -9.6910 H       1  UNL1        0.0268
     23 H         -16.9750    0.3520   -7.3610 H       1  UNL1        0.0274
     24 H         -17.5690   -1.7530   -5.8190 H       1  UNL1        0.0391
     25 H         -22.1820    2.8510   -6.3070 H       1  UNL1        0.0558
     26 H         -21.5160    3.2620   -9.2670 H       1  UNL1        0.0252
     27 C         -15.8410   -3.2410   -2.1820 C.ar    1  UNL1        0.1328
     28 C         -14.5770   -2.6730   -2.2390 C.ar    1  UNL1        0.0235
     29 C         -14.3250   -1.6880   -3.1860 C.ar    1  UNL1        0.1389
     30 C         -15.3360   -1.2230   -4.0450 C.ar    1  UNL1        0.0868
     31 C         -16.6400   -1.7390   -3.9580 C.ar    1  UNL1       -0.0028
     32 C         -16.8420   -2.8290   -3.0740 C.ar    1  UNL1        0.0832
     33 C         -18.0960   -3.6130   -3.0880 C.2     1  UNL1        0.2479
     34 O         -18.7530   -3.6900   -2.0540 O.2     1  UNL1       -0.2701
     35 N         -18.4790   -4.2850   -4.2240 N.am    1  UNL1       -0.3109
     36 C         -17.6440   -4.7140   -5.3460 C.3     1  UNL1        0.0153
     37 C         -18.3430   -4.5900   -6.7140 C.3     1  UNL1       -0.0191
     38 C         -17.7880   -3.4870   -7.5810 C.2     1  UNL1       -0.0865
     39 C         -18.5230   -2.5330   -8.1810 C.2     1  UNL1       -0.0879
     40 C         -17.9370   -1.4610   -9.0630 C.3     1  UNL1       -0.0347
     41 C         -18.4900   -0.0420   -8.8430 C.3     1  UNL1       -0.0488
     42 C         -18.0080    0.6580   -7.5610 C.3     1  UNL1       -0.0385
     43 C         -18.9130    0.4200   -6.3400 C.3     1  UNL1        0.0685
     44 C         -18.0530    0.1590   -5.1030 C.2     1  UNL1        0.1455
     45 C         -17.7740   -1.3050   -4.8530 C.3     1  UNL1        0.0338
     46 O         -17.6540    1.0630   -4.3710 O.2     1  UNL1       -0.2966
     47 C         -19.8900    1.5610   -6.0500 C.3     1  UNL1        0.1656
     48 O         -20.7770    1.1210   -5.0280 O.3     1  UNL1       -0.3663
     49 O         -20.6340    1.8290   -7.2360 O.3     1  UNL1       -0.3511
     50 C         -21.4650    2.9780   -7.1260 C.3     1  UNL1        0.0478
     51 C         -22.2160    3.1470   -8.4320 C.3     1  UNL1       -0.0415
     52 CL        -14.8690   -0.1020   -5.2820 Cl      1  UNL1       -0.0794
     53 O         -13.0420   -1.2110   -3.2540 O.3     1  UNL1       -0.5052
     54 O         -16.0410   -4.2170   -1.2440 O.3     1  UNL1       -0.5059
@<TRIPOS>BOND
     1     8    40    1
     2    22    41    1
     3    26    51    1
     4    40    21    1
     5    40    41    1
     6    40    39    1
     7     9    41    1
     8    41    42    1
     9    18    51    1
    10    51    16    1
    11    51    50    1
    12    39     2    1
    13    39    38    2
    14    10    42    1
    15     1    38    1
    16    38    37    1
    17    42    23    1
    18    42    43    1
    19    20    37    1
    20    49    50    1
    21    49    47    1
    22    50    15    1
    23    50    25    1
    24    37     7    1
    25    37    36    1
    26    11    43    1
    27    43    47    1
    28    43    44    1
    29    47    13    1
    30    47    48    1
    31    24    45    1
    32    36    19    1
    33    36     6    1
    34    36    35    1
    35    52    30    1
    36    44    45    1
    37    44    46    2
    38    48    14    1
    39    45    12    1
    40    45    31    1
    41    35     5    1
    42    35    33   am
    43    30    31   ar
    44    30    29   ar
    45    31    32   ar
    46    17    53    1
    47    53    29    1
    48    29    28   ar
    49    33    32    1
    50    33    34    2
    51    32    27   ar
    52    28    27   ar
    53    28     4    1
    54    27    54    1
    55    54     3    1
