@<TRIPOS>MOLECULE
6.99757
 54 55 0 0 0
SMALL
GASTEIGER

@<TRIPOS>ATOM
      1 H         -13.1940   -1.8920   -3.0110 H       1  UNL1        0.0569
      2 H         -12.4040   -4.5400   -1.6640 H       1  UNL1        0.0569
      3 H         -16.9260   -4.4670   -7.7050 H       1  UNL1        0.2922
      4 H         -19.3280   -1.9540   -8.0950 H       1  UNL1        0.0691
      5 H         -15.0460   -2.6300   -4.6130 H       1  UNL1        0.1490
      6 H         -13.6340   -4.8900   -5.7020 H       1  UNL1        0.0465
      7 H         -12.3570   -2.8830   -5.0000 H       1  UNL1        0.0322
      8 H         -13.1040   -1.7120   -0.6100 H       1  UNL1        0.0307
      9 H         -14.4710   -2.7250    1.1470 H       1  UNL1        0.0268
     10 H         -16.3560   -3.8280   -0.0580 H       1  UNL1        0.0274
     11 H         -15.2120   -1.2240   -0.9890 H       1  UNL1        0.0427
     12 H         -17.0700   -3.9260   -3.0280 H       1  UNL1        0.0391
     13 H         -18.0800   -2.0620   -0.3510 H       1  UNL1        0.0914
     14 H         -16.7620    0.4190   -0.7100 H       1  UNL1        0.2125
     15 H         -18.6650   -1.8690    1.8800 H       1  UNL1        0.0558
     16 H         -18.1950   -0.8670    4.1180 H       1  UNL1        0.0252
     17 H         -20.7230   -0.1510   -5.4070 H       1  UNL1        0.2922
     18 H         -16.6180   -0.2920    3.5260 H       1  UNL1        0.0252
     19 H         -14.1180   -5.2150   -4.0360 H       1  UNL1        0.0465
     20 H         -11.7910   -4.3200   -4.1610 H       1  UNL1        0.0322
     21 H         -12.1680   -2.9290    0.2270 H       1  UNL1        0.0307
     22 H         -14.1020   -4.3450    0.5830 H       1  UNL1        0.0268
     23 H         -15.3740   -3.9880   -1.4880 H       1  UNL1        0.0274
     24 H         -18.3160   -2.9010   -2.3890 H       1  UNL1        0.0391
     25 H         -18.3600   -0.1140    1.7450 H       1  UNL1        0.0558
     26 H         -16.9180   -2.0210    3.6600 H       1  UNL1        0.0252
     27 C         -17.8900   -3.0170   -6.8960 C.ar    1  UNL1        0.1328
     28 C         -18.9310   -2.1200   -7.0980 C.ar    1  UNL1        0.0235
     29 C         -19.4590   -1.4440   -6.0080 C.ar    1  UNL1        0.1389
     30 C         -18.9780   -1.6760   -4.7090 C.ar    1  UNL1        0.0868
     31 C         -17.9320   -2.5930   -4.4810 C.ar    1  UNL1       -0.0028
     32 C         -17.3530   -3.2180   -5.6120 C.ar    1  UNL1        0.0832
     33 C         -16.1810   -4.1190   -5.5160 C.2     1  UNL1        0.2479
     34 O         -16.2450   -5.2270   -6.0390 O.2     1  UNL1       -0.2701
     35 N         -15.0570   -3.6040   -4.9160 N.am    1  UNL1       -0.3109
     36 C         -13.8650   -4.4140   -4.7410 C.3     1  UNL1        0.0153
     37 C         -12.6420   -3.6330   -4.2520 C.3     1  UNL1       -0.0191
     38 C         -12.8690   -2.9290   -2.9430 C.2     1  UNL1       -0.0865
     39 C         -12.7240   -3.5020   -1.7380 C.2     1  UNL1       -0.0879
     40 C         -13.0230   -2.7930   -0.4470 C.3     1  UNL1       -0.0347
     41 C         -14.2900   -3.3180    0.2430 C.3     1  UNL1       -0.0488
     42 C         -15.5590   -3.3340   -0.6280 C.3     1  UNL1       -0.0385
     43 C         -16.0360   -1.9410   -1.0870 C.3     1  UNL1        0.0685
     44 C         -16.3910   -1.9470   -2.5710 C.2     1  UNL1        0.1455
     45 C         -17.4620   -2.9050   -3.0720 C.3     1  UNL1        0.0338
     46 O         -15.7490   -1.2420   -3.3590 O.2     1  UNL1       -0.2966
     47 C         -17.2070   -1.4080   -0.2540 C.3     1  UNL1        0.1656
     48 O         -17.5780   -0.1100   -0.6840 O.3     1  UNL1       -0.3663
     49 O         -16.8130   -1.3470    1.1120 O.3     1  UNL1       -0.3511
     50 C         -17.9090   -1.0830    1.9850 C.3     1  UNL1        0.0478
     51 C         -17.3870   -1.0630    3.4080 C.3     1  UNL1       -0.0415
     52 CL        -19.7260   -0.8110   -3.4060 Cl      1  UNL1       -0.0794
     53 O         -20.4770   -0.5620   -6.2570 O.3     1  UNL1       -0.5052
     54 O         -17.4350   -3.6830   -8.0040 O.3     1  UNL1       -0.5059
@<TRIPOS>BOND
     1     4    28    1
     2    54     3    1
     3    54    27    1
     4    28    27   ar
     5    28    29   ar
     6    27    32   ar
     7    53    29    1
     8    53    17    1
     9    34    33    2
    10    29    30   ar
    11     6    36    1
    12    32    33    1
    13    32    31   ar
    14    33    35   am
    15     7    37    1
    16    35    36    1
    17    35     5    1
    18    36    37    1
    19    36    19    1
    20    30    31   ar
    21    30    52    1
    22    31    45    1
    23    37    20    1
    24    37    38    1
    25    46    44    2
    26    45    12    1
    27    45    44    1
    28    45    24    1
    29     1    38    1
    30    38    39    2
    31    44    43    1
    32    39     2    1
    33    39    40    1
    34    23    42    1
    35    43    11    1
    36    43    42    1
    37    43    47    1
    38    14    48    1
    39    48    47    1
    40    42    10    1
    41    42    41    1
    42     8    40    1
    43    40    21    1
    44    40    41    1
    45    13    47    1
    46    47    49    1
    47    41    22    1
    48    41     9    1
    49    49    50    1
    50    25    50    1
    51    15    50    1
    52    50    51    1
    53    51    18    1
    54    51    26    1
    55    51    16    1
