@<TRIPOS>MOLECULE
21.76202
 54 55 0 0 0
SMALL
GASTEIGER

@<TRIPOS>ATOM
      1 H         -12.1920   -2.2240   -5.3500 H       1  UNL1        0.0569
      2 H         -11.2470   -2.1640   -8.2670 H       1  UNL1        0.0569
      3 H         -12.7080   -4.2400  -10.7840 H       1  UNL1        0.2922
      4 H         -12.0250   -1.3230  -12.5330 H       1  UNL1        0.0691
      5 H         -14.5730   -2.6930   -7.2120 H       1  UNL1        0.1490
      6 H         -13.6570   -5.4670   -7.1950 H       1  UNL1        0.0465
      7 H         -11.5340   -4.3590   -7.4840 H       1  UNL1        0.0322
      8 H         -11.9490    0.1340   -8.1840 H       1  UNL1        0.0307
      9 H         -11.7030    1.6280   -6.2860 H       1  UNL1        0.0268
     10 H         -13.5280    1.1890   -4.8610 H       1  UNL1        0.0274
     11 H         -13.9510    1.0810   -7.6790 H       1  UNL1        0.0427
     12 H         -16.2670   -1.8190   -8.4780 H       1  UNL1        0.0391
     13 H         -15.9770    1.3510   -5.3780 H       1  UNL1        0.0914
     14 H         -17.2700    2.2580   -6.8660 H       1  UNL1        0.2125
     15 H         -15.8650    3.4420   -4.3610 H       1  UNL1        0.0558
     16 H         -15.3460    5.8780   -4.5560 H       1  UNL1        0.0252
     17 H         -13.6500    1.7530  -12.0230 H       1  UNL1        0.2922
     18 H         -14.5170    5.5730   -6.1010 H       1  UNL1        0.0252
     19 H         -14.1180   -4.4120   -5.8390 H       1  UNL1        0.0465
     20 H         -11.6800   -4.6320   -5.7550 H       1  UNL1        0.0322
     21 H         -10.3700    0.0190   -7.4510 H       1  UNL1        0.0307
     22 H         -11.2940    0.3070   -5.2140 H       1  UNL1        0.0268
     23 H         -13.5380   -0.5070   -5.1810 H       1  UNL1        0.0274
     24 H         -16.4360   -0.1460   -8.7870 H       1  UNL1        0.0391
     25 H         -16.5400    4.1250   -5.8660 H       1  UNL1        0.0558
     26 H         -13.8570    4.9050   -4.6140 H       1  UNL1        0.0252
     27 C         -13.0240   -2.3440  -10.9220 C.ar    1  UNL1        0.1328
     28 C         -12.7430   -1.2440  -11.7220 C.ar    1  UNL1        0.0235
     29 C         -13.3990   -0.0560  -11.4800 C.ar    1  UNL1        0.1389
     30 C         -14.3350    0.0450  -10.4430 C.ar    1  UNL1        0.0868
     31 C         -14.6240   -1.0560   -9.5890 C.ar    1  UNL1       -0.0028
     32 C         -13.9460   -2.2850   -9.8380 C.ar    1  UNL1        0.0832
     33 C         -14.0450   -3.5660   -9.0460 C.2     1  UNL1        0.2479
     34 O         -13.7790   -4.6290   -9.6100 O.2     1  UNL1       -0.2701
     35 N         -14.2410   -3.5140   -7.6910 N.am    1  UNL1       -0.3109
     36 C         -13.5820   -4.4510   -6.7940 C.3     1  UNL1        0.0153
     37 C         -12.1020   -4.0640   -6.5920 C.3     1  UNL1       -0.0191
     38 C         -11.9190   -2.5790   -6.3390 C.2     1  UNL1       -0.0865
     39 C         -11.5210   -1.7320   -7.3030 C.2     1  UNL1       -0.0879
     40 C         -11.4270   -0.2330   -7.2920 C.3     1  UNL1       -0.0347
     41 C         -11.9120    0.5690   -6.0820 C.3     1  UNL1       -0.0488
     42 C         -13.3870    0.4590   -5.6690 C.3     1  UNL1       -0.0385
     43 C         -14.4450    0.6990   -6.7840 C.3     1  UNL1        0.0685
     44 C         -15.1770   -0.5950   -7.1140 C.2     1  UNL1        0.1455
     45 C         -15.6820   -0.8900   -8.5190 C.3     1  UNL1        0.0338
     46 O         -15.4120   -1.4280   -6.2270 O.2     1  UNL1       -0.2966
     47 C         -15.5030    1.7080   -6.3020 C.3     1  UNL1        0.1656
     48 O         -16.4950    1.8680   -7.3020 O.3     1  UNL1       -0.3663
     49 O         -14.8460    2.9540   -6.0950 O.3     1  UNL1       -0.3511
     50 C         -15.6150    3.8780   -5.3340 C.3     1  UNL1        0.0478
     51 C         -14.7910    5.1350   -5.1360 C.3     1  UNL1       -0.0415
     52 CL        -15.1350    1.5800  -10.2890 Cl      1  UNL1       -0.0794
     53 O         -13.0990    0.9970  -12.3020 O.3     1  UNL1       -0.5052
     54 O         -12.3170   -3.4740  -11.2640 O.3     1  UNL1       -0.5059
@<TRIPOS>BOND
     1     4    28    1
     2    53    17    1
     3    53    29    1
     4    28    29   ar
     5    28    27   ar
     6    29    30   ar
     7    54    27    1
     8    54     3    1
     9    27    32   ar
    10    30    52    1
    11    30    31   ar
    12    32    31   ar
    13    32    33    1
    14    34    33    2
    15    31    45    1
    16    33    35   am
    17    24    45    1
    18    45    12    1
    19    45    44    1
    20     2    39    1
    21     8    40    1
    22    35     5    1
    23    35    36    1
    24    11    43    1
    25     7    37    1
    26    21    40    1
    27    39    40    1
    28    39    38    2
    29    48    14    1
    30    48    47    1
    31    40    41    1
    32     6    36    1
    33    44    43    1
    34    44    46    2
    35    36    37    1
    36    36    19    1
    37    43    47    1
    38    43    42    1
    39    37    38    1
    40    37    20    1
    41    38     1    1
    42    47    49    1
    43    47    13    1
    44     9    41    1
    45    18    51    1
    46    49    50    1
    47    41    42    1
    48    41    22    1
    49    25    50    1
    50    42    23    1
    51    42    10    1
    52    50    51    1
    53    50    15    1
    54    51    26    1
    55    51    16    1
