@<TRIPOS>MOLECULE
12.68017
 54 55 0 0 0
SMALL
GASTEIGER

@<TRIPOS>ATOM
      1 H         -17.3000   -3.7880   -3.2140 H       1  UNL1        0.0569
      2 H         -17.6200   -5.4060   -0.6240 H       1  UNL1        0.0569
      3 H         -10.5530   -1.7450   -3.7670 H       1  UNL1        0.2922
      4 H         -10.2900    0.0870   -2.5120 H       1  UNL1        0.0691
      5 H         -14.4170   -2.4290   -3.1080 H       1  UNL1        0.1490
      6 H         -13.8440   -5.1970   -3.5850 H       1  UNL1        0.0465
      7 H         -15.3720   -5.5880   -1.6360 H       1  UNL1        0.0322
      8 H         -19.9650   -4.5910   -1.1160 H       1  UNL1        0.0307
      9 H         -19.0470   -3.6580    0.9760 H       1  UNL1        0.0268
     10 H         -18.3840   -1.0630    0.6240 H       1  UNL1        0.0274
     11 H         -16.5040   -3.4600    0.5000 H       1  UNL1        0.0427
     12 H         -13.9930   -1.7340    1.7490 H       1  UNL1        0.0391
     13 H         -17.7620   -2.6840    2.6330 H       1  UNL1        0.0914
     14 H         -17.1790   -0.8420    3.5050 H       1  UNL1        0.2125
     15 H         -16.8640   -3.7290    4.5150 H       1  UNL1        0.0558
     16 H         -14.8340   -4.3220    5.8450 H       1  UNL1        0.0252
     17 H         -11.1820    1.8190    0.3940 H       1  UNL1        0.2922
     18 H         -13.8000   -3.7290    4.5230 H       1  UNL1        0.0252
     19 H         -15.0780   -4.2050   -4.3710 H       1  UNL1        0.0465
     20 H         -16.0040   -6.1980   -3.1690 H       1  UNL1        0.0322
     21 H         -19.3320   -3.2450   -2.0500 H       1  UNL1        0.0307
     22 H         -20.0820   -2.5100    0.1440 H       1  UNL1        0.0268
     23 H         -17.8380   -1.6210   -0.9400 H       1  UNL1        0.0274
     24 H         -14.0560   -3.1450    0.7230 H       1  UNL1        0.0391
     25 H         -15.8290   -2.2980    4.7800 H       1  UNL1        0.0558
     26 H         -14.8170   -5.1420    4.2650 H       1  UNL1        0.0252
     27 C         -11.6540   -1.5690   -2.2000 C.ar    1  UNL1        0.1328
     28 C         -11.0410   -0.3650   -1.8720 C.ar    1  UNL1        0.0235
     29 C         -11.4130    0.2820   -0.7010 C.ar    1  UNL1        0.1389
     30 C         -12.3860   -0.2570    0.1540 C.ar    1  UNL1        0.0868
     31 C         -13.0030   -1.4840   -0.1510 C.ar    1  UNL1       -0.0028
     32 C         -12.6270   -2.1260   -1.3530 C.ar    1  UNL1        0.0832
     33 C         -13.2360   -3.4200   -1.7380 C.2     1  UNL1        0.2479
     34 O         -12.9040   -4.4490   -1.1640 O.2     1  UNL1       -0.2701
     35 N         -14.1780   -3.3410   -2.7370 N.am    1  UNL1       -0.3109
     36 C         -14.6900   -4.5240   -3.3970 C.3     1  UNL1        0.0153
     37 C         -15.7670   -5.2830   -2.6130 C.3     1  UNL1       -0.0191
     38 C         -17.0460   -4.5080   -2.4390 C.2     1  UNL1       -0.0865
     39 C         -17.8660   -4.6690   -1.3880 C.2     1  UNL1       -0.0879
     40 C         -19.1280   -3.8840   -1.1820 C.3     1  UNL1       -0.0347
     41 C         -19.1120   -3.0200    0.0870 C.3     1  UNL1       -0.0488
     42 C         -18.0090   -1.9480    0.0930 C.3     1  UNL1       -0.0385
     43 C         -16.6980   -2.4160    0.7670 C.3     1  UNL1        0.0685
     44 C         -15.4970   -1.6360    0.2190 C.2     1  UNL1        0.1455
     45 C         -14.1140   -2.0520    0.7100 C.3     1  UNL1        0.0338
     46 O         -15.6300   -0.7490   -0.6320 O.2     1  UNL1       -0.2966
     47 C         -16.7880   -2.3080    2.2970 C.3     1  UNL1        0.1656
     48 O         -16.6560   -0.9560    2.6960 O.3     1  UNL1       -0.3663
     49 O         -15.7640   -3.1100    2.8740 O.3     1  UNL1       -0.3511
     50 C         -15.8970   -3.2710    4.2820 C.3     1  UNL1        0.0478
     51 C         -14.7740   -4.1680    4.7640 C.3     1  UNL1       -0.0415
     52 CL        -12.7980    0.6480    1.5750 Cl      1  UNL1       -0.0794
     53 O         -10.7900    1.4730   -0.4310 O.3     1  UNL1       -0.5052
     54 O         -11.3060   -2.2050   -3.3600 O.3     1  UNL1       -0.5059
@<TRIPOS>BOND
     1    19    36    1
     2     3    54    1
     3     6    36    1
     4    36    35    1
     5    36    37    1
     6    54    27    1
     7     1    38    1
     8    20    37    1
     9     5    35    1
    10    35    33   am
    11    37    38    1
    12    37     7    1
    13     4    28    1
    14    38    39    2
    15    27    28   ar
    16    27    32   ar
    17    21    40    1
    18    28    29   ar
    19    33    32    1
    20    33    34    2
    21    39    40    1
    22    39     2    1
    23    32    31   ar
    24    40     8    1
    25    40    41    1
    26    23    42    1
    27    29    53    1
    28    29    30   ar
    29    46    44    2
    30    53    17    1
    31    31    30   ar
    32    31    45    1
    33    41    42    1
    34    41    22    1
    35    41     9    1
    36    42    10    1
    37    42    43    1
    38    30    52    1
    39    44    45    1
    40    44    43    1
    41    11    43    1
    42    45    24    1
    43    45    12    1
    44    43    47    1
    45    47    13    1
    46    47    48    1
    47    47    49    1
    48    48    14    1
    49    49    50    1
    50    26    51    1
    51    50    15    1
    52    50    51    1
    53    50    25    1
    54    18    51    1
    55    51    16    1
