@<TRIPOS>MOLECULE
12.42210
 54 55 0 0 0
SMALL
GASTEIGER

@<TRIPOS>ATOM
      1 H         -14.5400    4.0900   -0.5490 H       1  UNL1        0.0569
      2 H         -12.2090    2.2670   -1.3710 H       1  UNL1        0.0569
      3 H         -18.8870   -0.6000   -0.8290 H       1  UNL1        0.2922
      4 H         -19.0890   -2.8550   -3.4600 H       1  UNL1        0.0691
      5 H         -15.3240    0.4700   -1.6010 H       1  UNL1        0.1490
      6 H         -16.0280    0.8940    0.8980 H       1  UNL1        0.0465
      7 H         -13.6490    1.2030    0.1920 H       1  UNL1        0.0322
      8 H         -11.3740    4.2890   -2.3890 H       1  UNL1        0.0307
      9 H         -12.5250    4.7050   -4.4360 H       1  UNL1        0.0268
     10 H         -11.7850    2.2170   -3.9470 H       1  UNL1        0.0274
     11 H         -14.2670    1.7990   -2.9760 H       1  UNL1        0.0427
     12 H         -16.4310    2.4760   -3.4740 H       1  UNL1        0.0391
     13 H         -13.3340   -0.2300   -5.0580 H       1  UNL1        0.0914
     14 H         -14.3850   -1.5660   -3.7260 H       1  UNL1        0.2125
     15 H         -11.3020   -1.2840   -4.6190 H       1  UNL1        0.0558
     16 H          -9.7530   -2.2160   -2.8950 H       1  UNL1        0.0252
     17 H         -18.2060   -2.0310   -6.7650 H       1  UNL1        0.2922
     18 H         -10.5760   -1.2560   -1.6430 H       1  UNL1        0.0252
     19 H         -16.4330    2.4980    0.2880 H       1  UNL1        0.0465
     20 H         -14.1760    2.3940    1.3820 H       1  UNL1        0.0322
     21 H         -12.8170    5.2050   -2.0030 H       1  UNL1        0.0307
     22 H         -14.0840    4.2110   -3.8010 H       1  UNL1        0.0268
     23 H         -12.6420    2.6360   -5.4100 H       1  UNL1        0.0274
     24 H         -17.0820    2.4240   -5.0730 H       1  UNL1        0.0391
     25 H         -12.2100   -2.1160   -3.3260 H       1  UNL1        0.0558
     26 H          -9.6810   -0.4380   -2.9170 H       1  UNL1        0.0252
     27 C         -18.2830   -1.0580   -2.5920 C.ar    1  UNL1        0.1328
     28 C         -18.5480   -1.9300   -3.6360 C.ar    1  UNL1        0.0235
     29 C         -18.1570   -1.5740   -4.9160 C.ar    1  UNL1        0.1389
     30 C         -17.4930   -0.3590   -5.1650 C.ar    1  UNL1        0.0868
     31 C         -17.1550    0.5180   -4.1100 C.ar    1  UNL1       -0.0028
     32 C         -17.5630    0.1340   -2.8100 C.ar    1  UNL1        0.0832
     33 C         -17.3340    0.9640   -1.6110 C.2     1  UNL1        0.2479
     34 O         -18.3110    1.4140   -1.0220 O.2     1  UNL1       -0.2701
     35 N         -16.0410    1.0380   -1.1510 N.am    1  UNL1       -0.3109
     36 C         -15.7630    1.6430    0.1420 C.3     1  UNL1        0.0153
     37 C         -14.3060    2.0680    0.3430 C.3     1  UNL1       -0.0191
     38 C         -13.9030    3.2080   -0.5540 C.2     1  UNL1       -0.0865
     39 C         -12.8380    3.1570   -1.3680 C.2     1  UNL1       -0.0879
     40 C         -12.4690    4.2250   -2.3520 C.3     1  UNL1       -0.0347
     41 C         -13.0120    3.9810   -3.7700 C.3     1  UNL1       -0.0488
     42 C         -12.7540    2.5660   -4.3210 C.3     1  UNL1       -0.0385
     43 C         -13.8950    1.5780   -3.9740 C.3     1  UNL1        0.0685
     44 C         -15.0570    1.7630   -4.9380 C.2     1  UNL1        0.1455
     45 C         -16.4690    1.8460   -4.3690 C.3     1  UNL1        0.0338
     46 O         -14.8520    1.8500   -6.1520 O.2     1  UNL1       -0.2966
     47 C         -13.4620    0.1090   -4.0220 C.3     1  UNL1        0.1656
     48 O         -14.4760   -0.6600   -3.3830 O.3     1  UNL1       -0.3663
     49 O         -12.2640   -0.0450   -3.2710 O.3     1  UNL1       -0.3511
     50 C         -11.5740   -1.2560   -3.5580 C.3     1  UNL1        0.0478
     51 C         -10.3210   -1.3010   -2.7060 C.3     1  UNL1       -0.0415
     52 CL        -17.1800    0.0230   -6.8260 Cl      1  UNL1       -0.0794
     53 O         -18.4760   -2.4460   -5.9240 O.3     1  UNL1       -0.5052
     54 O         -18.7760   -1.4150   -1.3640 O.3     1  UNL1       -0.5059
@<TRIPOS>BOND
     1    52    30    1
     2    17    53    1
     3    46    44    2
     4    53    29    1
     5    23    42    1
     6    30    29   ar
     7    30    31   ar
     8    24    45    1
     9    13    47    1
    10    44    45    1
    11    44    43    1
    12    29    28   ar
    13    15    50    1
    14     9    41    1
    15    45    31    1
    16    45    12    1
    17    42    43    1
    18    42    10    1
    19    42    41    1
    20    31    32   ar
    21    47    43    1
    22    47    48    1
    23    47    49    1
    24    43    11    1
    25    22    41    1
    26    41    40    1
    27    14    48    1
    28    28     4    1
    29    28    27   ar
    30    50    25    1
    31    50    49    1
    32    50    51    1
    33    26    51    1
    34    16    51    1
    35    32    27   ar
    36    32    33    1
    37    51    18    1
    38    27    54    1
    39     8    40    1
    40    40    21    1
    41    40    39    1
    42    33    35   am
    43    33    34    2
    44     5    35    1
    45     2    39    1
    46    39    38    2
    47    54     3    1
    48    35    36    1
    49    38     1    1
    50    38    37    1
    51    36    19    1
    52    36    37    1
    53    36     6    1
    54     7    37    1
    55    37    20    1
