@<TRIPOS>MOLECULE
10.26975
 54 55 0 0 0
SMALL
GASTEIGER

@<TRIPOS>ATOM
      1 H         -17.1470   -4.5420   -1.7670 H       1  UNL1        0.0569
      2 H         -16.9060   -5.0780    1.2480 H       1  UNL1        0.0569
      3 H         -17.3650    1.2540    1.8530 H       1  UNL1        0.2922
      4 H         -14.4540    2.8500    2.9230 H       1  UNL1        0.0691
      5 H         -15.5070   -1.5550   -0.4590 H       1  UNL1        0.1490
      6 H         -17.2570   -1.9660   -1.8660 H       1  UNL1        0.0465
      7 H         -19.1610   -3.3600   -0.8260 H       1  UNL1        0.0322
      8 H         -16.2380   -6.8290   -1.1260 H       1  UNL1        0.0307
      9 H         -14.5140   -4.9660   -1.2780 H       1  UNL1        0.0268
     10 H         -13.0510   -6.2440    1.0020 H       1  UNL1        0.0274
     11 H         -12.3680   -4.2410   -0.6580 H       1  UNL1        0.0427
     12 H         -15.1380   -2.9290    1.8670 H       1  UNL1        0.0391
     13 H         -11.7320   -4.0190    2.3250 H       1  UNL1        0.0914
     14 H         -10.1100   -2.7950    1.6080 H       1  UNL1        0.2125
     15 H         -10.0800   -5.5090    3.0460 H       1  UNL1        0.0558
     16 H          -8.2340   -7.0840    2.4550 H       1  UNL1        0.0252
     17 H         -11.4320    1.1740    3.5900 H       1  UNL1        0.2922
     18 H          -8.6850   -6.9620    0.7380 H       1  UNL1        0.0252
     19 H         -18.3440   -1.1080   -0.7670 H       1  UNL1        0.0465
     20 H         -18.3720   -3.1850    0.7410 H       1  UNL1        0.0322
     21 H         -15.7770   -7.0890    0.5500 H       1  UNL1        0.0307
     22 H         -13.8630   -6.5810   -1.0870 H       1  UNL1        0.0268
     23 H         -14.3050   -5.1450    1.5130 H       1  UNL1        0.0274
     24 H         -13.6030   -2.9620    2.6590 H       1  UNL1        0.0391
     25 H          -8.9460   -4.7620    1.8880 H       1  UNL1        0.0558
     26 H          -9.8000   -7.7020    1.8790 H       1  UNL1        0.0252
     27 C         -15.4680    1.1250    2.1310 C.ar    1  UNL1        0.1328
     28 C         -14.3840    1.7940    2.6810 C.ar    1  UNL1        0.0235
     29 C         -13.2210    1.0870    2.9340 C.ar    1  UNL1        0.1389
     30 C         -13.1330   -0.2870    2.6550 C.ar    1  UNL1        0.0868
     31 C         -14.2170   -0.9870    2.0800 C.ar    1  UNL1       -0.0028
     32 C         -15.3860   -0.2410    1.7870 C.ar    1  UNL1        0.0832
     33 C         -16.5970   -0.8170    1.1560 C.2     1  UNL1        0.2479
     34 O         -17.6880   -0.5820    1.6690 O.2     1  UNL1       -0.2701
     35 N         -16.4350   -1.4700   -0.0400 N.am    1  UNL1       -0.3109
     36 C         -17.5830   -1.8950   -0.8220 C.3     1  UNL1        0.0153
     37 C         -18.1890   -3.2180   -0.3400 C.3     1  UNL1       -0.0191
     38 C         -17.3220   -4.3910   -0.7030 C.2     1  UNL1       -0.0865
     39 C         -16.7440   -5.2180    0.1820 C.2     1  UNL1       -0.0879
     40 C         -15.8250   -6.3310   -0.2400 C.3     1  UNL1       -0.0347
     41 C         -14.4290   -5.7970   -0.5670 C.3     1  UNL1       -0.0488
     42 C         -13.6340   -5.3740    0.6780 C.3     1  UNL1       -0.0385
     43 C         -12.7160   -4.1720    0.3830 C.3     1  UNL1        0.0685
     44 C         -13.5030   -2.8590    0.4970 C.2     1  UNL1        0.1455
     45 C         -14.1380   -2.4840    1.8340 C.3     1  UNL1        0.0338
     46 O         -13.7250   -2.1670   -0.5040 O.2     1  UNL1       -0.2966
     47 C         -11.4640   -4.1450    1.2710 C.3     1  UNL1        0.1656
     48 O         -10.6450   -3.0700    0.8460 O.3     1  UNL1       -0.3663
     49 O         -10.7630   -5.3730    1.0970 O.3     1  UNL1       -0.3511
     50 C          -9.6950   -5.5490    2.0220 C.3     1  UNL1        0.0478
     51 C          -9.0620   -6.9020    1.7640 C.3     1  UNL1       -0.0415
     52 CL        -11.6600   -1.0850    3.1020 Cl      1  UNL1       -0.0794
     53 O         -12.1830    1.7870    3.4910 O.3     1  UNL1       -0.5052
     54 O         -16.6070    1.8710    1.9600 O.3     1  UNL1       -0.5059
@<TRIPOS>BOND
     1     6    36    1
     2     1    38    1
     3     9    41    1
     4     8    40    1
     5    22    41    1
     6     7    37    1
     7    36    19    1
     8    36    37    1
     9    36    35    1
    10    38    37    1
    11    38    39    2
    12    11    43    1
    13    41    40    1
    14    41    42    1
    15    46    44    2
    16     5    35    1
    17    37    20    1
    18    40    39    1
    19    40    21    1
    20    35    33   am
    21    39     2    1
    22    43    44    1
    23    43    42    1
    24    43    47    1
    25    44    45    1
    26    42    10    1
    27    42    23    1
    28    18    51    1
    29    48    47    1
    30    48    14    1
    31    49    47    1
    32    49    50    1
    33    33    34    2
    34    33    32    1
    35    47    13    1
    36    51    26    1
    37    51    50    1
    38    51    16    1
    39    32    31   ar
    40    32    27   ar
    41    45    12    1
    42    45    31    1
    43    45    24    1
    44     3    54    1
    45    25    50    1
    46    54    27    1
    47    50    15    1
    48    31    30   ar
    49    27    28   ar
    50    30    29   ar
    51    30    52    1
    52    28     4    1
    53    28    29   ar
    54    29    53    1
    55    53    17    1
