@<TRIPOS>MOLECULE
6.97899
 54 55 0 0 0
SMALL
GASTEIGER

@<TRIPOS>ATOM
      1 H         -13.1220   -0.4390   -7.9160 H       1  UNL1        0.0569
      2 H         -12.5750   -1.6280   -5.1350 H       1  UNL1        0.0569
      3 H         -18.5680   -3.4420   -9.3790 H       1  UNL1        0.2922
      4 H         -19.9700   -1.0800  -11.5480 H       1  UNL1        0.0691
      5 H         -15.4560   -1.0570   -8.3640 H       1  UNL1        0.1490
      6 H         -15.2340   -3.8460   -7.5840 H       1  UNL1        0.0465
      7 H         -13.2690   -2.7250   -8.6130 H       1  UNL1        0.0322
      8 H         -12.2930    1.2020   -6.3790 H       1  UNL1        0.0307
      9 H         -13.2050    2.1230   -4.2810 H       1  UNL1        0.0268
     10 H         -15.5530    1.2170   -4.2160 H       1  UNL1        0.0274
     11 H         -14.2380    2.2920   -6.6890 H       1  UNL1        0.0427
     12 H         -17.3390   -0.0120   -6.3830 H       1  UNL1        0.0391
     13 H         -15.2040    3.7930   -5.1000 H       1  UNL1        0.0914
     14 H         -17.2350    3.6970   -4.4560 H       1  UNL1        0.2125
     15 H         -15.8200    5.8520   -5.9380 H       1  UNL1        0.0558
     16 H         -17.0030    7.2060   -7.6580 H       1  UNL1        0.0252
     17 H         -19.8980    2.3930  -10.9560 H       1  UNL1        0.2922
     18 H         -17.4480    5.7210   -8.5290 H       1  UNL1        0.0252
     19 H         -15.1750   -2.7610   -6.1940 H       1  UNL1        0.0465
     20 H         -12.8840   -3.3390   -7.0110 H       1  UNL1        0.0322
     21 H         -11.3920    0.5900   -5.0070 H       1  UNL1        0.0307
     22 H         -13.3870    0.5120   -3.6040 H       1  UNL1        0.0268
     23 H         -15.1170   -0.0310   -5.3430 H       1  UNL1        0.0274
     24 H         -17.9570    1.5750   -6.7400 H       1  UNL1        0.0391
     25 H         -17.5310    5.3580   -6.0610 H       1  UNL1        0.0558
     26 H         -15.7560    6.1870   -8.4150 H       1  UNL1        0.0252
     27 C         -18.7370   -1.5910   -9.8590 C.ar    1  UNL1        0.1328
     28 C         -19.4150   -0.7110  -10.6910 C.ar    1  UNL1        0.0235
     29 C         -19.3730    0.6470  -10.4110 C.ar    1  UNL1        0.1389
     30 C         -18.6880    1.1340   -9.2850 C.ar    1  UNL1        0.0868
     31 C         -18.0070    0.2560   -8.4170 C.ar    1  UNL1       -0.0028
     32 C         -17.9920   -1.1170   -8.7620 C.ar    1  UNL1        0.0832
     33 C         -17.2020   -2.1260   -8.0220 C.2     1  UNL1        0.2479
     34 O         -17.7610   -3.1440   -7.6290 O.2     1  UNL1       -0.2701
     35 N         -15.8510   -1.8960   -7.9370 N.am    1  UNL1       -0.3109
     36 C         -14.9650   -2.8320   -7.2680 C.3     1  UNL1        0.0153
     37 C         -13.4770   -2.5880   -7.5450 C.3     1  UNL1       -0.0191
     38 C         -13.0390   -1.2060   -7.1480 C.2     1  UNL1       -0.0865
     39 C         -12.6410   -0.8690   -5.9120 C.2     1  UNL1       -0.0879
     40 C         -12.3690    0.5500   -5.5020 C.3     1  UNL1       -0.0347
     41 C         -13.4420    1.0840   -4.5400 C.3     1  UNL1       -0.0488
     42 C         -14.8890    1.0030   -5.0620 C.3     1  UNL1       -0.0385
     43 C         -15.1810    1.9700   -6.2270 C.3     1  UNL1        0.0685
     44 C         -15.9150    1.2470   -7.3600 C.2     1  UNL1        0.1455
     45 C         -17.3440    0.7710   -7.1490 C.3     1  UNL1        0.0338
     46 O         -15.2930    0.9270   -8.3840 O.2     1  UNL1       -0.2966
     47 C         -15.8860    3.2550   -5.7720 C.3     1  UNL1        0.1656
     48 O         -17.0700    2.9520   -5.0560 O.3     1  UNL1       -0.3663
     49 O         -16.1660    4.0550   -6.9110 O.3     1  UNL1       -0.3511
     50 C         -16.5690    5.3810   -6.5840 C.3     1  UNL1        0.0478
     51 C         -16.7040    6.1750   -7.8680 C.3     1  UNL1       -0.0415
     52 CL        -18.7270    2.8450   -9.0050 Cl      1  UNL1       -0.0794
     53 O         -20.0430    1.4800  -11.2680 O.3     1  UNL1       -0.5052
     54 O         -18.8400   -2.9230  -10.1670 O.3     1  UNL1       -0.5059
@<TRIPOS>BOND
     1     4    28    1
     2    53    17    1
     3    53    29    1
     4    28    29   ar
     5    28    27   ar
     6    29    30   ar
     7    54    27    1
     8    54     3    1
     9    27    32   ar
    10    30    52    1
    11    30    31   ar
    12    32    31   ar
    13    32    33    1
    14     7    37    1
    15    18    51    1
    16    31    45    1
    17    26    51    1
    18    46    44    2
    19     5    35    1
    20    33    35   am
    21    33    34    2
    22    35    36    1
    23     1    38    1
    24    51    16    1
    25    51    50    1
    26     6    36    1
    27    37    36    1
    28    37    38    1
    29    37    20    1
    30    44    45    1
    31    44    43    1
    32    36    19    1
    33    45    24    1
    34    45    12    1
    35    38    39    2
    36    49    50    1
    37    49    47    1
    38    11    43    1
    39    50    25    1
    40    50    15    1
    41     8    40    1
    42    43    47    1
    43    43    42    1
    44    39    40    1
    45    39     2    1
    46    47    13    1
    47    47    48    1
    48    40    21    1
    49    40    41    1
    50    23    42    1
    51    42    41    1
    52    42    10    1
    53    48    14    1
    54    41     9    1
    55    41    22    1
