@<TRIPOS>MOLECULE
14.10852
 54 55 0 0 0
SMALL
GASTEIGER

@<TRIPOS>ATOM
      1 H         -19.0340    2.6240  -10.0450 H       1  UNL1        0.0569
      2 H         -20.0630    0.6130  -12.1250 H       1  UNL1        0.0569
      3 H         -15.9110   -2.4670  -12.3360 H       1  UNL1        0.2922
      4 H         -12.9850   -2.0970  -14.2200 H       1  UNL1        0.0691
      5 H         -15.6540    1.2550  -10.5300 H       1  UNL1        0.1490
      6 H         -17.0190    1.2090   -8.7610 H       1  UNL1        0.0465
      7 H         -19.3180    0.3850   -8.8030 H       1  UNL1        0.0322
      8 H         -20.6290    3.5880  -11.8450 H       1  UNL1        0.0307
      9 H         -18.4010    3.7440  -12.7820 H       1  UNL1        0.0268
     10 H         -19.3370    1.8740  -15.0250 H       1  UNL1        0.0274
     11 H         -17.6210    3.5400  -15.7010 H       1  UNL1        0.0427
     12 H         -15.1500    3.0880  -12.3310 H       1  UNL1        0.0391
     13 H         -17.5870    1.4950  -16.8640 H       1  UNL1        0.0914
     14 H         -16.8330   -0.3380  -16.0860 H       1  UNL1        0.2125
     15 H         -15.9790    1.2260  -18.5280 H       1  UNL1        0.0558
     16 H         -13.5810    1.2050  -19.1920 H       1  UNL1        0.0252
     17 H         -11.7540    1.0120  -15.3280 H       1  UNL1        0.2922
     18 H         -13.1200    1.7620  -17.5670 H       1  UNL1        0.0252
     19 H         -17.0110   -0.5450   -8.9870 H       1  UNL1        0.0465
     20 H         -19.0610   -0.4760  -10.3060 H       1  UNL1        0.0322
     21 H         -21.1640    2.4900  -13.1060 H       1  UNL1        0.0307
     22 H         -19.5700    4.1000  -14.0410 H       1  UNL1        0.0268
     23 H         -18.3030    1.3250  -13.7180 H       1  UNL1        0.0274
     24 H         -16.6430    2.2080  -12.3800 H       1  UNL1        0.0391
     25 H         -15.0340    0.1750  -17.4380 H       1  UNL1        0.0558
     26 H         -14.0500    2.8230  -18.6180 H       1  UNL1        0.0252
     27 C         -14.6270   -1.2640  -13.1040 C.ar    1  UNL1        0.1328
     28 C         -13.5100   -1.1940  -13.9250 C.ar    1  UNL1        0.0235
     29 C         -13.0590    0.0490  -14.3380 C.ar    1  UNL1        0.1389
     30 C         -13.7400    1.2220  -13.9790 C.ar    1  UNL1        0.0868
     31 C         -14.9220    1.1700  -13.2070 C.ar    1  UNL1       -0.0028
     32 C         -15.3090   -0.0970  -12.6960 C.ar    1  UNL1        0.0832
     33 C         -16.3880   -0.2950  -11.6830 C.2     1  UNL1        0.2479
     34 O         -17.1210   -1.2760  -11.7760 O.2     1  UNL1       -0.2701
     35 N         -16.3960    0.5730  -10.6130 N.am    1  UNL1       -0.3109
     36 C         -17.2720    0.4070   -9.4630 C.3     1  UNL1        0.0153
     37 C         -18.7800    0.4310   -9.7570 C.3     1  UNL1       -0.0191
     38 C         -19.2420    1.6580  -10.4980 C.2     1  UNL1       -0.0865
     39 C         -19.8710    1.5910  -11.6820 C.2     1  UNL1       -0.0879
     40 C         -20.2940    2.7750  -12.5020 C.3     1  UNL1       -0.0347
     41 C         -19.1740    3.2920  -13.4140 C.3     1  UNL1       -0.0488
     42 C         -18.5680    2.2040  -14.3140 C.3     1  UNL1       -0.0385
     43 C         -17.3260    2.6720  -15.0920 C.3     1  UNL1        0.0685
     44 C         -16.2210    3.2060  -14.1740 C.2     1  UNL1        0.1455
     45 C         -15.7450    2.4140  -12.9620 C.3     1  UNL1        0.0338
     46 O         -15.8070    4.3610  -14.3410 O.2     1  UNL1       -0.2966
     47 C         -16.8300    1.6010  -16.0760 C.3     1  UNL1        0.1656
     48 O         -16.7020    0.3550  -15.4190 O.3     1  UNL1       -0.3663
     49 O         -15.5990    2.0060  -16.6490 O.3     1  UNL1       -0.3511
     50 C         -15.2000    1.2080  -17.7580 C.3     1  UNL1        0.0478
     51 C         -13.9130    1.7780  -18.3220 C.3     1  UNL1       -0.0415
     52 CL        -13.0280    2.7270  -14.4640 Cl      1  UNL1       -0.0794
     53 O         -11.9290    0.0760  -15.1130 O.3     1  UNL1       -0.5052
     54 O         -15.0060   -2.5260  -12.7190 O.3     1  UNL1       -0.5059
@<TRIPOS>BOND
     1    16    51    1
     2    26    51    1
     3    15    50    1
     4    51    50    1
     5    51    18    1
     6    50    25    1
     7    50    49    1
     8    13    47    1
     9    49    47    1
    10    14    48    1
    11    47    48    1
    12    47    43    1
    13    11    43    1
    14    17    53    1
    15    53    29    1
    16    43    42    1
    17    43    44    1
    18    10    42    1
    19    52    30    1
    20    46    44    2
    21    29    30   ar
    22    29    28   ar
    23    42    23    1
    24    42    41    1
    25     4    28    1
    26    44    45    1
    27    22    41    1
    28    30    31   ar
    29    28    27   ar
    30    41     9    1
    31    41    40    1
    32    31    45    1
    33    31    32   ar
    34    21    40    1
    35    27    54    1
    36    27    32   ar
    37    45    24    1
    38    45    12    1
    39    54     3    1
    40    32    33    1
    41    40     8    1
    42    40    39    1
    43     2    39    1
    44    34    33    2
    45    33    35   am
    46    39    38    2
    47    35     5    1
    48    35    36    1
    49    38     1    1
    50    38    37    1
    51    20    37    1
    52    37    36    1
    53    37     7    1
    54    36    19    1
    55    36     6    1
