@<TRIPOS>MOLECULE
14.51616
 54 55 0 0 0
SMALL
GASTEIGER

@<TRIPOS>ATOM
      1 H         -20.6800   -0.9750   -6.1630 H       1  UNL1        0.0569
      2 H         -22.2210   -2.1560   -3.7810 H       1  UNL1        0.0569
      3 H         -22.6280    4.8680   -3.4460 H       1  UNL1        0.2922
      4 H         -21.1650    5.6380   -2.0120 H       1  UNL1        0.0691
      5 H         -22.4110    2.1670   -4.3360 H       1  UNL1        0.1490
      6 H         -21.8590    1.1310   -7.0650 H       1  UNL1        0.0465
      7 H         -23.2610   -0.8720   -6.6990 H       1  UNL1        0.0322
      8 H         -19.8170   -3.4520   -4.4270 H       1  UNL1        0.0307
      9 H         -19.3270   -0.4740   -4.0420 H       1  UNL1        0.0268
     10 H         -17.1800   -2.5720   -3.5350 H       1  UNL1        0.0274
     11 H         -16.4630   -0.3040   -4.4020 H       1  UNL1        0.0427
     12 H         -16.6910    2.3780   -4.1180 H       1  UNL1        0.0391
     13 H         -15.7970   -0.5610   -1.4140 H       1  UNL1        0.0914
     14 H         -14.1710    0.7130   -1.9470 H       1  UNL1        0.2125
     15 H         -14.2750   -2.2490   -0.8920 H       1  UNL1        0.0558
     16 H         -12.4250   -3.7440   -1.6490 H       1  UNL1        0.0252
     17 H         -17.8740    5.6330   -0.8510 H       1  UNL1        0.2922
     18 H         -12.7820   -3.3260   -3.3410 H       1  UNL1        0.0252
     19 H         -23.4150    1.5850   -6.3670 H       1  UNL1        0.0465
     20 H         -23.4840   -0.4550   -4.9960 H       1  UNL1        0.0322
     21 H         -20.1340   -2.6780   -2.8760 H       1  UNL1        0.0307
     22 H         -18.5760   -1.5320   -5.2300 H       1  UNL1        0.0268
     23 H         -18.0530   -1.7750   -2.2260 H       1  UNL1        0.0274
     24 H         -17.9430    1.4610   -4.8790 H       1  UNL1        0.0391
     25 H         -13.0710   -1.3430   -1.8500 H       1  UNL1        0.0558
     26 H         -13.9680   -4.2200   -2.3980 H       1  UNL1        0.0252
     27 C         -20.9080    4.0000   -3.4140 C.ar    1  UNL1        0.1328
     28 C         -20.4880    4.9080   -2.4440 C.ar    1  UNL1        0.0235
     29 C         -19.1710    4.8820   -2.0190 C.ar    1  UNL1        0.1389
     30 C         -18.2660    3.9480   -2.5360 C.ar    1  UNL1        0.0868
     31 C         -18.6700    3.0030   -3.5110 C.ar    1  UNL1       -0.0028
     32 C         -20.0210    3.0460   -3.9710 C.ar    1  UNL1        0.0832
     33 C         -20.5040    2.1690   -5.1010 C.2     1  UNL1        0.2479
     34 O         -19.7470    1.8570   -6.0140 O.2     1  UNL1       -0.2701
     35 N         -21.8300    1.7870   -5.0760 N.am    1  UNL1       -0.3109
     36 C         -22.4740    1.0630   -6.1610 C.3     1  UNL1        0.0153
     37 C         -22.7770   -0.4080   -5.8330 C.3     1  UNL1       -0.0191
     38 C         -21.5270   -1.1750   -5.5080 C.2     1  UNL1       -0.0865
     39 C         -21.3720   -1.9640   -4.4320 C.2     1  UNL1       -0.0879
     40 C         -20.0410   -2.4910   -3.9530 C.3     1  UNL1       -0.0347
     41 C         -18.9150   -1.4780   -4.1880 C.3     1  UNL1       -0.0488
     42 C         -17.7110   -1.6530   -3.2610 C.3     1  UNL1       -0.0385
     43 C         -16.7720   -0.4330   -3.3570 C.3     1  UNL1        0.0685
     44 C         -17.5180    0.8180   -2.9040 C.2     1  UNL1        0.1455
     45 C         -17.6750    1.9310   -3.9360 C.3     1  UNL1        0.0338
     46 O         -17.9750    0.8990   -1.7600 O.2     1  UNL1       -0.2966
     47 C         -15.5260   -0.5630   -2.4780 C.3     1  UNL1        0.1656
     48 O         -14.6800    0.5460   -2.7570 O.3     1  UNL1       -0.3663
     49 O         -14.8520   -1.7690   -2.8210 O.3     1  UNL1       -0.3511
     50 C         -13.8370   -2.1240   -1.8890 C.3     1  UNL1        0.0478
     51 C         -13.2120   -3.4300   -2.3390 C.3     1  UNL1       -0.0415
     52 CL        -16.6370    4.0090   -1.9300 Cl      1  UNL1       -0.0794
     53 O         -18.8100    5.8030   -1.0720 O.3     1  UNL1       -0.5052
     54 O         -22.2200    4.0650   -3.8150 O.3     1  UNL1       -0.5059
@<TRIPOS>BOND
     1     6    36    1
     2     7    37    1
     3    19    36    1
     4     1    38    1
     5    36    37    1
     6    36    35    1
     7    34    33    2
     8    37    38    1
     9    37    20    1
    10    38    39    2
    11    22    41    1
    12    33    35   am
    13    33    32    1
    14    35     5    1
    15    24    45    1
    16    39    40    1
    17    39     2    1
    18     8    40    1
    19    11    43    1
    20    41     9    1
    21    41    40    1
    22    41    42    1
    23    12    45    1
    24    32    31   ar
    25    32    27   ar
    26    40    21    1
    27    45    31    1
    28    45    44    1
    29    54     3    1
    30    54    27    1
    31    10    42    1
    32    31    30   ar
    33    27    28   ar
    34    43    42    1
    35    43    44    1
    36    43    47    1
    37    18    51    1
    38    42    23    1
    39    44    46    2
    40    49    47    1
    41    49    50    1
    42    48    47    1
    43    48    14    1
    44    30    29   ar
    45    30    52    1
    46    47    13    1
    47    28    29   ar
    48    28     4    1
    49    26    51    1
    50    51    50    1
    51    51    16    1
    52    29    53    1
    53    50    25    1
    54    50    15    1
    55    53    17    1
