@<TRIPOS>MOLECULE
13.97173
 54 55 0 0 0
SMALL
GASTEIGER

@<TRIPOS>ATOM
      1 H         -15.3250    6.4590   -4.6310 H       1  UNL1        0.0569
      2 H         -14.9700    7.6810   -1.8430 H       1  UNL1        0.0569
      3 H         -18.4230    6.2460   -8.0720 H       1  UNL1        0.2922
      4 H         -19.2870    3.0280   -9.1000 H       1  UNL1        0.0691
      5 H         -18.7740    5.5210   -4.0310 H       1  UNL1        0.1490
      6 H         -18.3440    7.3750   -2.8550 H       1  UNL1        0.0465
      7 H         -16.5540    8.9050   -3.2440 H       1  UNL1        0.0322
      8 H         -13.7480    5.5600   -1.4910 H       1  UNL1        0.0307
      9 H         -12.0480    5.3270   -3.7180 H       1  UNL1        0.0268
     10 H         -12.6590    3.5100   -2.2090 H       1  UNL1        0.0274
     11 H         -15.2040    3.8120   -2.2710 H       1  UNL1        0.0427
     12 H         -17.4190    2.8820   -3.4930 H       1  UNL1        0.0391
     13 H         -14.2400    1.0110   -3.0990 H       1  UNL1        0.0914
     14 H         -16.0720    0.3740   -2.1850 H       1  UNL1        0.2125
     15 H         -13.0480   -0.1060   -1.4120 H       1  UNL1        0.0558
     16 H         -12.6550   -0.4260    1.0360 H       1  UNL1        0.0252
     17 H         -18.4520    0.1130   -7.3140 H       1  UNL1        0.2922
     18 H         -13.5290    1.0890    1.3680 H       1  UNL1        0.0252
     19 H         -18.7640    8.2160   -4.3530 H       1  UNL1        0.0465
     20 H         -16.4780    8.5520   -4.9530 H       1  UNL1        0.0322
     21 H         -12.7220    6.7750   -2.2120 H       1  UNL1        0.0307
     22 H         -13.6050    5.3050   -4.4900 H       1  UNL1        0.0268
     23 H         -12.7170    3.0560   -3.9000 H       1  UNL1        0.0274
     24 H         -16.9050    4.5070   -3.8090 H       1  UNL1        0.0391
     25 H         -14.5910   -0.1610   -0.5150 H       1  UNL1        0.0558
     26 H         -12.0060    1.1390    0.4890 H       1  UNL1        0.0252
     27 C         -18.5820    4.3930   -7.5920 C.ar    1  UNL1        0.1328
     28 C         -18.8430    3.1330   -8.1150 C.ar    1  UNL1        0.0235
     29 C         -18.5170    2.0140   -7.3660 C.ar    1  UNL1        0.1389
     30 C         -17.9180    2.1400   -6.1040 C.ar    1  UNL1        0.0868
     31 C         -17.6390    3.4120   -5.5500 C.ar    1  UNL1       -0.0028
     32 C         -18.0210    4.5510   -6.3070 C.ar    1  UNL1        0.0832
     33 C         -17.8690    5.9540   -5.8350 C.2     1  UNL1        0.2479
     34 O         -17.4820    6.8090   -6.6260 O.2     1  UNL1       -0.2701
     35 N         -18.2530    6.2200   -4.5440 N.am    1  UNL1       -0.3109
     36 C         -18.0570    7.5090   -3.9040 C.3     1  UNL1        0.0153
     37 C         -16.6330    8.0870   -3.9710 C.3     1  UNL1       -0.0191
     38 C         -15.5200    7.0890   -3.7680 C.2     1  UNL1       -0.0865
     39 C         -14.7540    7.0050   -2.6700 C.2     1  UNL1       -0.0879
     40 C         -13.5670    6.1060   -2.4250 C.3     1  UNL1       -0.0347
     41 C         -13.1130    5.1350   -3.5300 C.3     1  UNL1       -0.0488
     42 C         -13.2280    3.6550   -3.1350 C.3     1  UNL1       -0.0385
     43 C         -14.6710    3.1420   -2.9570 C.3     1  UNL1        0.0685
     44 C         -15.4230    3.1180   -4.2850 C.2     1  UNL1        0.1455
     45 C         -16.8970    3.5040   -4.2260 C.3     1  UNL1        0.0338
     46 O         -14.8640    2.7950   -5.3350 O.2     1  UNL1       -0.2966
     47 C         -14.6920    1.7150   -2.3880 C.3     1  UNL1        0.1656
     48 O         -16.0410    1.3440   -2.1420 O.3     1  UNL1       -0.3663
     49 O         -13.9880    1.7180   -1.1510 O.3     1  UNL1       -0.3511
     50 C         -13.6730    0.4140   -0.6780 C.3     1  UNL1        0.0478
     51 C         -12.9210    0.5550    0.6310 C.3     1  UNL1       -0.0415
     52 CL        -17.5530    0.6720   -5.2450 Cl      1  UNL1       -0.0794
     53 O         -18.7970    0.7940   -7.9210 O.3     1  UNL1       -0.5052
     54 O         -18.9040    5.4540   -8.4010 O.3     1  UNL1       -0.5059
@<TRIPOS>BOND
     1     4    28    1
     2    54     3    1
     3    54    27    1
     4    28    27   ar
     5    28    29   ar
     6    53    29    1
     7    53    17    1
     8    27    32   ar
     9    29    30   ar
    10    34    33    2
    11    32    33    1
    12    32    31   ar
    13    30    31   ar
    14    30    52    1
    15    33    35   am
    16    31    45    1
    17    46    44    2
    18    20    37    1
    19     1    38    1
    20    35     5    1
    21    35    36    1
    22    22    41    1
    23    19    36    1
    24    44    45    1
    25    44    43    1
    26    45    24    1
    27    45    12    1
    28    37    36    1
    29    37    38    1
    30    37     7    1
    31    36     6    1
    32    23    42    1
    33    38    39    2
    34     9    41    1
    35    41    42    1
    36    41    40    1
    37    42    43    1
    38    42    10    1
    39    13    47    1
    40    43    47    1
    41    43    11    1
    42    39    40    1
    43    39     2    1
    44    40    21    1
    45    40     8    1
    46    47    48    1
    47    47    49    1
    48    14    48    1
    49    15    50    1
    50    49    50    1
    51    50    25    1
    52    50    51    1
    53    26    51    1
    54    51    16    1
    55    51    18    1
