@<TRIPOS>MOLECULE
13.41403
 54 55 0 0 0
SMALL
GASTEIGER

@<TRIPOS>ATOM
      1 H         -15.5370    5.6620   -3.3910 H       1  UNL1        0.0569
      2 H         -12.7570    5.8540   -4.6730 H       1  UNL1        0.0569
      3 H         -19.4270    5.6210   -6.7790 H       1  UNL1        0.2922
      4 H         -21.5230    2.8790   -6.1610 H       1  UNL1        0.0691
      5 H         -17.9740    5.4490   -4.5820 H       1  UNL1        0.1490
      6 H         -17.1540    7.5560   -4.6380 H       1  UNL1        0.0465
      7 H         -14.8060    7.8590   -5.1160 H       1  UNL1        0.0322
      8 H         -13.9530    4.2050   -2.3240 H       1  UNL1        0.0307
      9 H         -11.4480    3.7230   -4.0170 H       1  UNL1        0.0268
     10 H         -12.4450    1.8800   -5.0440 H       1  UNL1        0.0274
     11 H         -14.2700    1.8320   -2.8130 H       1  UNL1        0.0427
     12 H         -15.5800    2.7090   -6.3950 H       1  UNL1        0.0391
     13 H         -13.1550   -0.0930   -3.6600 H       1  UNL1        0.0914
     14 H         -13.4260   -0.8740   -5.6170 H       1  UNL1        0.2125
     15 H         -13.9800   -2.1360   -3.0470 H       1  UNL1        0.0558
     16 H         -15.9090   -3.6570   -2.6650 H       1  UNL1        0.0252
     17 H         -20.3760   -0.3620   -5.4100 H       1  UNL1        0.2922
     18 H         -17.0300   -2.3780   -3.1830 H       1  UNL1        0.0252
     19 H         -16.9460    7.4270   -6.3910 H       1  UNL1        0.0465
     20 H         -14.7590    6.4480   -6.1780 H       1  UNL1        0.0322
     21 H         -12.4210    5.0640   -2.2120 H       1  UNL1        0.0307
     22 H         -12.0170    2.6970   -2.7140 H       1  UNL1        0.0268
     23 H         -13.5490    3.2020   -5.3290 H       1  UNL1        0.0274
     24 H         -15.9180    1.0300   -6.1210 H       1  UNL1        0.0391
     25 H         -14.9330   -2.3300   -4.5430 H       1  UNL1        0.0558
     26 H         -16.0900   -2.1650   -1.7120 H       1  UNL1        0.0252
     27 C         -19.5620    3.7590   -6.2860 C.ar    1  UNL1        0.1328
     28 C         -20.4520    2.7110   -6.0950 C.ar    1  UNL1        0.0235
     29 C         -19.9550    1.4480   -5.8160 C.ar    1  UNL1        0.1389
     30 C         -18.5730    1.2130   -5.7300 C.ar    1  UNL1        0.0868
     31 C         -17.6480    2.2600   -5.9240 C.ar    1  UNL1       -0.0028
     32 C         -18.1730    3.5440   -6.1940 C.ar    1  UNL1        0.0832
     33 C         -17.2810    4.7110   -6.3760 C.2     1  UNL1        0.2479
     34 O         -16.5610    4.7980   -7.3580 O.2     1  UNL1       -0.2701
     35 N         -17.4180    5.6700   -5.4030 N.am    1  UNL1       -0.3109
     36 C         -16.7210    6.9410   -5.4350 C.3     1  UNL1        0.0153
     37 C         -15.2010    6.8450   -5.2560 C.3     1  UNL1       -0.0191
     38 C         -14.7750    5.9830   -4.0990 C.2     1  UNL1       -0.0865
     39 C         -13.5180    5.5350   -3.9630 C.2     1  UNL1       -0.0879
     40 C         -13.0950    4.5530   -2.9100 C.3     1  UNL1       -0.0347
     41 C         -12.3570    3.3570   -3.5210 C.3     1  UNL1       -0.0488
     42 C         -13.1640    2.5410   -4.5450 C.3     1  UNL1       -0.0385
     43 C         -14.2910    1.7050   -3.9060 C.3     1  UNL1        0.0685
     44 C         -15.6800    2.2080   -4.3180 C.2     1  UNL1        0.1455
     45 C         -16.1530    2.0300   -5.7590 C.3     1  UNL1        0.0338
     46 O         -16.3620    2.8420   -3.5010 O.2     1  UNL1       -0.2966
     47 C         -14.0930    0.2000   -4.1490 C.3     1  UNL1        0.1656
     48 O         -13.9700   -0.0740   -5.5340 O.3     1  UNL1       -0.3663
     49 O         -15.1690   -0.5200   -3.5690 O.3     1  UNL1       -0.3511
     50 C         -14.9430   -1.9250   -3.5250 C.3     1  UNL1        0.0478
     51 C         -16.0550   -2.5750   -2.7260 C.3     1  UNL1       -0.0415
     52 CL        -18.0640   -0.4070   -5.3800 Cl      1  UNL1       -0.0794
     53 O         -20.8740    0.4490   -5.6270 O.3     1  UNL1       -0.5052
     54 O         -20.1260    4.9770   -6.5610 O.3     1  UNL1       -0.5059
@<TRIPOS>BOND
     1    34    33    2
     2     3    54    1
     3    54    27    1
     4    12    45    1
     5    19    36    1
     6    33    32    1
     7    33    35   am
     8    27    32   ar
     9    27    28   ar
    10    32    31   ar
    11    20    37    1
    12     4    28    1
    13    24    45    1
    14    28    29   ar
    15    31    45    1
    16    31    30   ar
    17    29    30   ar
    18    29    53    1
    19    45    44    1
    20    30    52    1
    21    53    17    1
    22    14    48    1
    23    48    47    1
    24    36    35    1
    25    36    37    1
    26    36     6    1
    27    35     5    1
    28    23    42    1
    29    37     7    1
    30    37    38    1
    31    10    42    1
    32     2    39    1
    33    42    43    1
    34    42    41    1
    35    25    50    1
    36    44    43    1
    37    44    46    2
    38    47    43    1
    39    47    13    1
    40    47    49    1
    41    38    39    2
    42    38     1    1
    43     9    41    1
    44    39    40    1
    45    43    11    1
    46    49    50    1
    47    50    15    1
    48    50    51    1
    49    41    40    1
    50    41    22    1
    51    18    51    1
    52    40     8    1
    53    40    21    1
    54    51    16    1
    55    51    26    1
