@<TRIPOS>MOLECULE
7.52443
 54 55 0 0 0
SMALL
GASTEIGER

@<TRIPOS>ATOM
      1 H         -14.0920    1.5350   -9.0610 H       1  UNL1        0.0569
      2 H         -16.1720   -0.2190   -7.6360 H       1  UNL1        0.0569
      3 H         -20.3940    4.1380   -9.3820 H       1  UNL1        0.2922
      4 H         -21.7750    6.0480   -6.8120 H       1  UNL1        0.0691
      5 H         -16.6610    3.8680   -7.7620 H       1  UNL1        0.1490
      6 H         -15.5360    3.5730   -9.7290 H       1  UNL1        0.0465
      7 H         -15.8530    1.2540  -10.8260 H       1  UNL1        0.0322
      8 H         -13.1460   -0.1650   -7.4420 H       1  UNL1        0.0307
      9 H         -13.8760    2.0300   -6.3800 H       1  UNL1        0.0268
     10 H         -14.7240    0.4750   -3.9610 H       1  UNL1        0.0274
     11 H         -14.4740    3.1290   -4.4120 H       1  UNL1        0.0427
     12 H         -17.6850    1.8090   -6.2710 H       1  UNL1        0.0391
     13 H         -14.9570    2.2160   -2.2700 H       1  UNL1        0.0914
     14 H         -16.8930    1.4830   -1.6900 H       1  UNL1        0.2125
     15 H         -15.2530    3.8190   -0.6490 H       1  UNL1        0.0558
     16 H         -16.4880    5.8210    0.1820 H       1  UNL1        0.0252
     17 H         -20.9300    5.6410   -3.4190 H       1  UNL1        0.2922
     18 H         -17.3480    5.9350   -1.3710 H       1  UNL1        0.0252
     19 H         -17.0730    3.2950  -10.5570 H       1  UNL1        0.0465
     20 H         -17.0800    0.9030   -9.6100 H       1  UNL1        0.0322
     21 H         -14.2630   -1.0190   -6.3880 H       1  UNL1        0.0307
     22 H         -12.9800    0.9460   -5.3340 H       1  UNL1        0.0268
     23 H         -15.9620    0.5910   -5.1920 H       1  UNL1        0.0274
     24 H         -18.1010    2.0270   -4.6100 H       1  UNL1        0.0391
     25 H         -17.0160    3.5460   -0.6960 H       1  UNL1        0.0558
     26 H         -15.6100    6.1950   -1.3200 H       1  UNL1        0.0252
     27 C         -20.2820    4.6820   -7.5440 C.ar    1  UNL1        0.1328
     28 C         -20.9620    5.3770   -6.5550 C.ar    1  UNL1        0.0235
     29 C         -20.5990    5.1800   -5.2340 C.ar    1  UNL1        0.1389
     30 C         -19.5700    4.2870   -4.8890 C.ar    1  UNL1        0.0868
     31 C         -18.8490    3.5830   -5.8790 C.ar    1  UNL1       -0.0028
     32 C         -19.2060    3.8240   -7.2280 C.ar    1  UNL1        0.0832
     33 C         -18.5290    3.1990   -8.3900 C.2     1  UNL1        0.2479
     34 O         -19.2250    2.6900   -9.2650 O.2     1  UNL1       -0.2701
     35 N         -17.1690    3.3580   -8.4870 N.am    1  UNL1       -0.3109
     36 C         -16.4610    2.9870   -9.7000 C.3     1  UNL1        0.0153
     37 C         -16.1710    1.4850   -9.8020 C.3     1  UNL1       -0.0191
     38 C         -15.0620    1.0760   -8.8760 C.2     1  UNL1       -0.0865
     39 C         -15.2060    0.2360   -7.8390 C.2     1  UNL1       -0.0879
     40 C         -14.0850   -0.0590   -6.8840 C.3     1  UNL1       -0.0347
     41 C         -13.9370    1.0670   -5.8580 C.3     1  UNL1       -0.0488
     42 C         -15.0610    1.0830   -4.8110 C.3     1  UNL1       -0.0385
     43 C         -15.3830    2.5140   -4.3460 C.3     1  UNL1        0.0685
     44 C         -16.3940    3.1890   -5.2870 C.2     1  UNL1        0.1455
     45 C         -17.7760    2.5760   -5.4940 C.3     1  UNL1        0.0338
     46 O         -16.0370    4.1510   -5.9840 O.2     1  UNL1       -0.2966
     47 C         -15.8070    2.5610   -2.8730 C.3     1  UNL1        0.1656
     48 O         -16.8940    1.6860   -2.6400 O.3     1  UNL1       -0.3663
     49 O         -16.1200    3.9000   -2.5290 O.3     1  UNL1       -0.3511
     50 C         -16.1910    4.1250   -1.1250 C.3     1  UNL1        0.0478
     51 C         -16.4240    5.6040   -0.8880 C.3     1  UNL1       -0.0415
     52 CL        -19.2790    4.0540   -3.1970 Cl      1  UNL1       -0.0794
     53 O         -21.3060    5.8750   -4.2880 O.3     1  UNL1       -0.5052
     54 O         -20.7300    4.8770   -8.8270 O.3     1  UNL1       -0.5059
@<TRIPOS>BOND
     1     7    37    1
     2    19    36    1
     3    37    36    1
     4    37    20    1
     5    37    38    1
     6     6    36    1
     7    36    35    1
     8     3    54    1
     9    34    33    2
    10     1    38    1
    11    38    39    2
    12    54    27    1
    13    35    33   am
    14    35     5    1
    15    33    32    1
    16    39     2    1
    17    39    40    1
    18    27    32   ar
    19    27    28   ar
    20     8    40    1
    21    32    31   ar
    22    40    21    1
    23    40    41    1
    24     4    28    1
    25    28    29   ar
    26     9    41    1
    27    12    45    1
    28    46    44    2
    29    31    45    1
    30    31    30   ar
    31    41    22    1
    32    41    42    1
    33    45    44    1
    34    45    24    1
    35    44    43    1
    36    29    30   ar
    37    29    53    1
    38    23    42    1
    39    30    52    1
    40    42    43    1
    41    42    10    1
    42    11    43    1
    43    43    47    1
    44    53    17    1
    45    47    48    1
    46    47    49    1
    47    47    13    1
    48    48    14    1
    49    49    50    1
    50    18    51    1
    51    26    51    1
    52    50    51    1
    53    50    25    1
    54    50    15    1
    55    51    16    1
