@<TRIPOS>MOLECULE
18.89927
 54 55 0 0 0
SMALL
GASTEIGER

@<TRIPOS>ATOM
      1 H         -12.4040    2.5900   -5.2430 H       1  UNL1        0.0569
      2 H         -11.7140    2.5080   -8.2320 H       1  UNL1        0.0569
      3 H          -8.7350   -1.1640   -3.7790 H       1  UNL1        0.2922
      4 H          -6.6400   -1.9120   -6.4740 H       1  UNL1        0.0691
      5 H         -11.5310    0.4030   -3.5640 H       1  UNL1        0.1490
      6 H          -8.9640    1.1460   -4.6140 H       1  UNL1        0.0465
      7 H         -10.0260    1.4540   -6.7880 H       1  UNL1        0.0322
      8 H         -13.8620    3.9250   -8.0200 H       1  UNL1        0.0307
      9 H         -13.7910    1.9400   -9.5440 H       1  UNL1        0.0268
     10 H         -15.6500    0.3050   -8.0490 H       1  UNL1        0.0274
     11 H         -13.9160   -0.2570  -10.0230 H       1  UNL1        0.0427
     12 H         -12.5510   -1.3550   -6.6190 H       1  UNL1        0.0391
     13 H         -15.6390   -1.7630   -9.3530 H       1  UNL1        0.0914
     14 H         -15.6150   -2.8630   -7.5330 H       1  UNL1        0.2125
     15 H         -15.6070   -3.9070  -10.3030 H       1  UNL1        0.0558
     16 H         -14.2970   -5.9430  -10.9280 H       1  UNL1        0.0252
     17 H          -7.7930   -2.7990   -9.6770 H       1  UNL1        0.2922
     18 H         -12.8080   -5.1560  -10.3490 H       1  UNL1        0.0252
     19 H         -10.1620    2.1550   -3.8150 H       1  UNL1        0.0465
     20 H          -9.7500    3.0250   -6.0380 H       1  UNL1        0.0322
     21 H         -14.3780    2.8960   -6.6850 H       1  UNL1        0.0307
     22 H         -15.3810    2.3120   -8.9140 H       1  UNL1        0.0268
     23 H         -14.2140    0.4230   -7.0520 H       1  UNL1        0.0274
     24 H         -12.2860   -2.6710   -7.7580 H       1  UNL1        0.0391
     25 H         -14.7560   -4.5870   -8.8880 H       1  UNL1        0.0558
     26 H         -13.6550   -4.4970  -11.7440 H       1  UNL1        0.0252
     27 C          -8.5880   -1.4470   -5.6810 C.ar    1  UNL1        0.1328
     28 C          -7.7040   -1.8400   -6.6770 C.ar    1  UNL1        0.0235
     29 C          -8.2020   -2.1920   -7.9240 C.ar    1  UNL1        0.1389
     30 C          -9.5780   -2.1480   -8.1930 C.ar    1  UNL1        0.0868
     31 C         -10.4890   -1.6930   -7.2160 C.ar    1  UNL1       -0.0028
     32 C          -9.9650   -1.3360   -5.9470 C.ar    1  UNL1        0.0832
     33 C         -10.8750   -0.9730   -4.8440 C.2     1  UNL1        0.2479
     34 O         -11.6420   -1.8200   -4.3950 O.2     1  UNL1       -0.2701
     35 N         -10.8390    0.2800   -4.2950 N.am    1  UNL1       -0.3109
     36 C         -10.0170    1.4360   -4.6300 C.3     1  UNL1        0.0153
     37 C         -10.3450    2.1070   -5.9670 C.3     1  UNL1       -0.0191
     38 C         -11.7970    2.4640   -6.1350 C.2     1  UNL1       -0.0865
     39 C         -12.3460    2.6140   -7.3500 C.2     1  UNL1       -0.0879
     40 C         -13.7920    2.9100   -7.6110 C.3     1  UNL1       -0.0347
     41 C         -14.3920    1.9310   -8.6270 C.3     1  UNL1       -0.0488
     42 C         -14.5710    0.5000   -8.0860 C.3     1  UNL1       -0.0385
     43 C         -13.8960   -0.5680   -8.9690 C.3     1  UNL1        0.0685
     44 C         -12.4080   -0.6850   -8.6090 C.2     1  UNL1        0.1455
     45 C         -11.9840   -1.6510   -7.5040 C.3     1  UNL1        0.0338
     46 O         -11.5970    0.0740   -9.1550 O.2     1  UNL1       -0.2966
     47 C         -14.6430   -1.9090   -8.9140 C.3     1  UNL1        0.1656
     48 O         -14.8050   -2.3280   -7.5710 O.3     1  UNL1       -0.3663
     49 O         -13.9270   -2.8650   -9.6830 O.3     1  UNL1       -0.3511
     50 C         -14.6240   -4.0930   -9.8570 C.3     1  UNL1        0.0478
     51 C         -13.8030   -4.9800  -10.7720 C.3     1  UNL1       -0.0415
     52 CL        -10.1080   -2.7420   -9.7370 Cl      1  UNL1       -0.0794
     53 O          -7.2930   -2.6090   -8.8600 O.3     1  UNL1       -0.5052
     54 O          -8.0300   -1.2210   -4.4500 O.3     1  UNL1       -0.5059
@<TRIPOS>BOND
     1    26    51    1
     2    16    51    1
     3    51    18    1
     4    51    50    1
     5    15    50    1
     6    11    43    1
     7    50    49    1
     8    50    25    1
     9    52    30    1
    10    49    47    1
    11    17    53    1
    12     9    41    1
    13    13    47    1
    14    46    44    2
    15    43    47    1
    16    43    44    1
    17    43    42    1
    18    22    41    1
    19    47    48    1
    20    53    29    1
    21    41    42    1
    22    41    40    1
    23    44    45    1
    24     2    39    1
    25    30    29   ar
    26    30    31   ar
    27    42    10    1
    28    42    23    1
    29     8    40    1
    30    29    28   ar
    31    24    45    1
    32    40    39    1
    33    40    21    1
    34    48    14    1
    35    45    31    1
    36    45    12    1
    37    39    38    2
    38    31    32   ar
    39     7    37    1
    40    28     4    1
    41    28    27   ar
    42    38    37    1
    43    38     1    1
    44    20    37    1
    45    37    36    1
    46    32    27   ar
    47    32    33    1
    48    27    54    1
    49    33    34    2
    50    33    35   am
    51    36     6    1
    52    36    35    1
    53    36    19    1
    54    54     3    1
    55    35     5    1
