@<TRIPOS>MOLECULE
9.42301
 54 55 0 0 0
SMALL
GASTEIGER

@<TRIPOS>ATOM
      1 H         -13.6450   -1.8170   -1.1290 H       1  UNL1        0.0569
      2 H         -14.3730   -2.8850    1.6510 H       1  UNL1        0.0569
      3 H         -14.2170   -6.3250   -5.3640 H       1  UNL1        0.2922
      4 H         -17.1800   -5.5050   -7.0410 H       1  UNL1        0.0691
      5 H         -14.8640   -3.6770   -2.3100 H       1  UNL1        0.1490
      6 H         -12.3770   -3.6550   -2.5610 H       1  UNL1        0.0465
      7 H         -11.8040   -3.5670   -0.1840 H       1  UNL1        0.0322
      8 H         -15.4210   -0.5440   -0.1070 H       1  UNL1        0.0307
      9 H         -17.0100   -0.2890    1.8640 H       1  UNL1        0.0268
     10 H         -17.8400   -1.2470   -0.2730 H       1  UNL1        0.0274
     11 H         -18.8110   -3.6050    0.0740 H       1  UNL1        0.0427
     12 H         -16.3540   -5.6640   -1.1960 H       1  UNL1        0.0391
     13 H         -16.2020   -4.2220    1.5470 H       1  UNL1        0.0914
     14 H         -17.1140   -6.1940    1.7100 H       1  UNL1        0.2125
     15 H         -16.3360   -4.1100    3.8610 H       1  UNL1        0.0558
     16 H         -17.7350   -4.2750    5.9230 H       1  UNL1        0.0252
     17 H         -20.1430   -4.5110   -5.4140 H       1  UNL1        0.2922
     18 H         -19.2070   -4.2090    4.9250 H       1  UNL1        0.0252
     19 H         -12.3710   -5.2950   -1.9100 H       1  UNL1        0.0465
     20 H         -13.2160   -4.5390    0.2480 H       1  UNL1        0.0322
     21 H         -14.7470   -0.2820    1.4970 H       1  UNL1        0.0307
     22 H         -16.5200   -1.8540    2.4450 H       1  UNL1        0.0268
     23 H         -18.6960   -1.6680    1.1820 H       1  UNL1        0.0274
     24 H         -18.0910   -5.5220   -1.2880 H       1  UNL1        0.0391
     25 H         -17.4160   -5.5290    3.7890 H       1  UNL1        0.0558
     26 H         -18.1420   -2.8100    4.9970 H       1  UNL1        0.0252
     27 C         -15.9880   -5.5900   -5.2500 C.ar    1  UNL1        0.1328
     28 C         -17.1610   -5.3780   -5.9630 C.ar    1  UNL1        0.0235
     29 C         -18.3060   -4.9960   -5.2800 C.ar    1  UNL1        0.1389
     30 C         -18.3000   -4.8580   -3.8830 C.ar    1  UNL1        0.0868
     31 C         -17.1250   -5.0950   -3.1380 C.ar    1  UNL1       -0.0028
     32 C         -15.9450   -5.4050   -3.8540 C.ar    1  UNL1        0.0832
     33 C         -14.6090   -5.5190   -3.2140 C.2     1  UNL1        0.2479
     34 O         -13.8710   -6.4430   -3.5400 O.2     1  UNL1       -0.2701
     35 N         -14.2450   -4.4860   -2.3860 N.am    1  UNL1       -0.3109
     36 C         -12.8940   -4.3340   -1.8740 C.3     1  UNL1        0.0153
     37 C         -12.8480   -3.7730   -0.4460 C.3     1  UNL1       -0.0191
     38 C         -13.6510   -2.5100   -0.2880 C.2     1  UNL1       -0.0865
     39 C         -14.4040   -2.2280    0.7860 C.2     1  UNL1       -0.0879
     40 C         -15.2810   -1.0120    0.8750 C.3     1  UNL1       -0.0347
     41 C         -16.6440   -1.2700    1.5280 C.3     1  UNL1       -0.0488
     42 C         -17.7580   -1.8520    0.6390 C.3     1  UNL1       -0.0385
     43 C         -17.7580   -3.3620    0.2850 C.3     1  UNL1        0.0685
     44 C         -17.0540   -3.6480   -1.0460 C.2     1  UNL1        0.1455
     45 C         -17.1580   -5.0550   -1.6210 C.3     1  UNL1        0.0338
     46 O         -16.4380   -2.7760   -1.6680 O.2     1  UNL1       -0.2966
     47 C         -17.2860   -4.2850    1.4190 C.3     1  UNL1        0.1656
     48 O         -17.6220   -5.6290    1.1060 O.3     1  UNL1       -0.3663
     49 O         -17.9740   -3.9190    2.6090 O.3     1  UNL1       -0.3511
     50 C         -17.3800   -4.4350    3.7950 C.3     1  UNL1        0.0478
     51 C         -18.1570   -3.9050    4.9840 C.3     1  UNL1       -0.0415
     52 CL        -19.7840   -4.3900   -3.1130 Cl      1  UNL1       -0.0794
     53 O         -19.4330   -4.7800   -6.0260 O.3     1  UNL1       -0.5052
     54 O         -14.8970   -5.9800   -5.9840 O.3     1  UNL1       -0.5059
@<TRIPOS>BOND
     1     4    28    1
     2    53    17    1
     3    53    29    1
     4    54     3    1
     5    54    27    1
     6    28    29   ar
     7    28    27   ar
     8    29    30   ar
     9    27    32   ar
    10    30    31   ar
    11    30    52    1
    12    32    33    1
    13    32    31   ar
    14    34    33    2
    15    33    35   am
    16    31    45    1
    17     6    36    1
    18    35     5    1
    19    35    36    1
    20    19    36    1
    21    36    37    1
    22    46    44    2
    23    45    24    1
    24    45    12    1
    25    45    44    1
    26     1    38    1
    27    44    43    1
    28    37    38    1
    29    37     7    1
    30    37    20    1
    31    38    39    2
    32    10    42    1
    33     8    40    1
    34    11    43    1
    35    43    42    1
    36    43    47    1
    37    42    23    1
    38    42    41    1
    39    39    40    1
    40    39     2    1
    41    40    21    1
    42    40    41    1
    43    48    47    1
    44    48    14    1
    45    47    13    1
    46    47    49    1
    47    41     9    1
    48    41    22    1
    49    49    50    1
    50    25    50    1
    51    50    15    1
    52    50    51    1
    53    18    51    1
    54    51    26    1
    55    51    16    1
