@<TRIPOS>MOLECULE
11.39274
 54 55 0 0 0
SMALL
GASTEIGER

@<TRIPOS>ATOM
      1 H         -21.1550   -2.5650   -4.7930 H       1  UNL1        0.0569
      2 H         -21.0270   -1.5120   -1.9150 H       1  UNL1        0.0569
      3 H         -23.0660    4.8990   -1.9290 H       1  UNL1        0.2922
      4 H         -21.1660    5.9650   -1.4090 H       1  UNL1        0.0691
      5 H         -21.7210    1.0940   -1.8410 H       1  UNL1        0.1490
      6 H         -23.8830    0.5450   -3.4930 H       1  UNL1        0.0465
      7 H         -22.3500   -0.4900   -5.1500 H       1  UNL1        0.0322
      8 H         -19.4590   -3.6670   -3.5090 H       1  UNL1        0.0307
      9 H         -17.4830   -2.8700   -2.1420 H       1  UNL1        0.0268
     10 H         -17.2740   -2.1020   -4.3250 H       1  UNL1        0.0274
     11 H         -16.6800    0.2140   -4.4010 H       1  UNL1        0.0427
     12 H         -17.8470    2.2430   -4.6000 H       1  UNL1        0.0391
     13 H         -16.2010   -0.4360   -1.4480 H       1  UNL1        0.0914
     14 H         -14.6870    1.0140   -1.7050 H       1  UNL1        0.2125
     15 H         -14.5890   -2.0530   -1.0060 H       1  UNL1        0.0558
     16 H         -12.6190   -3.3650   -1.8020 H       1  UNL1        0.0252
     17 H         -17.6830    6.1020   -1.7400 H       1  UNL1        0.2922
     18 H         -12.9240   -2.8080   -3.4650 H       1  UNL1        0.0252
     19 H         -23.2700   -0.5110   -2.2160 H       1  UNL1        0.0465
     20 H         -23.4720   -1.6360   -4.4450 H       1  UNL1        0.0322
     21 H         -19.7390   -3.6510   -1.7700 H       1  UNL1        0.0307
     22 H         -18.4430   -1.5120   -1.5860 H       1  UNL1        0.0268
     23 H         -18.7400   -1.1560   -4.3020 H       1  UNL1        0.0274
     24 H         -19.2960    1.2680   -4.5530 H       1  UNL1        0.0391
     25 H         -13.3990   -0.9940   -1.8130 H       1  UNL1        0.0558
     26 H         -14.0950   -3.8520   -2.6690 H       1  UNL1        0.0252
     27 C         -21.4050    4.0790   -2.4500 C.ar    1  UNL1        0.1328
     28 C         -20.6810    5.1480   -1.9340 C.ar    1  UNL1        0.0235
     29 C         -19.3020    5.1650   -2.0920 C.ar    1  UNL1        0.1389
     30 C         -18.6320    4.1250   -2.7550 C.ar    1  UNL1        0.0868
     31 C         -19.3480    3.0360   -3.2870 C.ar    1  UNL1       -0.0028
     32 C         -20.7510    3.0320   -3.1220 C.ar    1  UNL1        0.0832
     33 C         -21.5790    1.9550   -3.7040 C.2     1  UNL1        0.2479
     34 O         -21.8240    1.9660   -4.9030 O.2     1  UNL1       -0.2701
     35 N         -21.9940    0.9960   -2.8110 N.am    1  UNL1       -0.3109
     36 C         -22.9970    0.0000   -3.1460 C.3     1  UNL1        0.0153
     37 C         -22.5920   -1.0190   -4.2210 C.3     1  UNL1       -0.0191
     38 C         -21.4520   -1.9630   -3.9350 C.2     1  UNL1       -0.0865
     39 C         -20.7660   -2.1000   -2.7910 C.2     1  UNL1       -0.0879
     40 C         -19.5730   -3.0060   -2.6410 C.3     1  UNL1       -0.0347
     41 C         -18.2930   -2.1900   -2.4320 C.3     1  UNL1       -0.0488
     42 C         -17.8670   -1.4240   -3.6970 C.3     1  UNL1       -0.0385
     43 C         -17.0620   -0.1420   -3.4340 C.3     1  UNL1        0.0685
     44 C         -17.9940    0.9390   -2.8970 C.2     1  UNL1        0.1455
     45 C         -18.6260    1.8670   -3.9280 C.3     1  UNL1        0.0338
     46 O         -18.2680    1.0150   -1.6950 O.2     1  UNL1       -0.2966
     47 C         -15.8710   -0.3030   -2.4860 C.3     1  UNL1        0.1656
     48 O         -15.0790    0.8750   -2.5820 O.3     1  UNL1       -0.3663
     49 O         -15.1040   -1.4260   -2.9100 O.3     1  UNL1       -0.3511
     50 C         -14.1140   -1.8100   -1.9630 C.3     1  UNL1        0.0478
     51 C         -13.3910   -3.0300   -2.5000 C.3     1  UNL1       -0.0415
     52 CL        -16.9050    4.2280   -2.8830 Cl      1  UNL1       -0.0794
     53 O         -18.6340    6.2380   -1.5640 O.3     1  UNL1       -0.5052
     54 O         -22.7630    4.0500   -2.2920 O.3     1  UNL1       -0.5059
@<TRIPOS>BOND
     1     7    37    1
     2    34    33    2
     3     1    38    1
     4    12    45    1
     5    24    45    1
     6    20    37    1
     7    11    43    1
     8    10    42    1
     9    23    42    1
    10    37    38    1
    11    37    36    1
    12    38    39    2
    13    45    31    1
    14    45    44    1
    15    33    32    1
    16    33    35   am
    17    42    43    1
    18    42    41    1
    19     8    40    1
    20     6    36    1
    21    18    51    1
    22    43    44    1
    23    43    47    1
    24    31    32   ar
    25    31    30   ar
    26    36    35    1
    27    36    19    1
    28    32    27   ar
    29    49    47    1
    30    49    50    1
    31    44    46    2
    32    52    30    1
    33    35     5    1
    34    39    40    1
    35    39     2    1
    36    30    29   ar
    37    26    51    1
    38    40    41    1
    39    40    21    1
    40    48    47    1
    41    48    14    1
    42    51    50    1
    43    51    16    1
    44    47    13    1
    45    27    54    1
    46    27    28   ar
    47    41     9    1
    48    41    22    1
    49    54     3    1
    50    29    28   ar
    51    29    53    1
    52    50    25    1
    53    50    15    1
    54    28     4    1
    55    17    53    1
