@<TRIPOS>MOLECULE
8.73799
 54 55 0 0 0
SMALL
GASTEIGER

@<TRIPOS>ATOM
      1 H         -18.9170   -1.4670   -6.7200 H       1  UNL1        0.0569
      2 H         -21.1070   -0.5770   -4.7650 H       1  UNL1        0.0569
      3 H         -22.8220    3.4180   -3.4000 H       1  UNL1        0.2922
      4 H         -21.1230    5.9060   -1.6420 H       1  UNL1        0.0691
      5 H         -19.8120    2.7940   -6.0490 H       1  UNL1        0.1490
      6 H         -21.4290    1.9640   -7.6230 H       1  UNL1        0.0465
      7 H         -19.2180    0.7950   -7.5830 H       1  UNL1        0.0322
      8 H         -19.0330   -2.8850   -4.7790 H       1  UNL1        0.0307
      9 H         -19.7940   -2.7650   -2.2230 H       1  UNL1        0.0268
     10 H         -17.8260   -1.6600   -1.5420 H       1  UNL1        0.0274
     11 H         -17.5010   -0.5770   -4.3900 H       1  UNL1        0.0427
     12 H         -17.1660    2.2640   -4.1500 H       1  UNL1        0.0391
     13 H         -15.6750   -0.2140   -1.9460 H       1  UNL1        0.0914
     14 H         -14.4830    0.9290   -3.3270 H       1  UNL1        0.2125
     15 H         -13.9820   -1.8050   -1.7720 H       1  UNL1        0.0558
     16 H         -12.3790   -3.3130   -2.9520 H       1  UNL1        0.0252
     17 H         -17.6740    5.7780   -0.9460 H       1  UNL1        0.2922
     18 H         -13.3310   -3.1500   -4.4470 H       1  UNL1        0.0252
     19 H         -22.0630    0.8400   -6.4180 H       1  UNL1        0.0465
     20 H         -20.5420   -0.1960   -8.1820 H       1  UNL1        0.0322
     21 H         -20.7100   -3.0010   -4.2720 H       1  UNL1        0.0307
     22 H         -20.0540   -1.0630   -2.5370 H       1  UNL1        0.0268
     23 H         -17.4580   -2.6410   -2.9470 H       1  UNL1        0.0274
     24 H         -18.5860    1.4610   -4.7220 H       1  UNL1        0.0391
     25 H         -13.2650   -0.9920   -3.1910 H       1  UNL1        0.0558
     26 H         -14.0370   -3.9530   -3.0500 H       1  UNL1        0.0252
     27 C         -21.1270    4.1880   -2.9390 C.ar    1  UNL1        0.1328
     28 C         -20.5270    5.1320   -2.1160 C.ar    1  UNL1        0.0235
     29 C         -19.1610    5.0570   -1.8910 C.ar    1  UNL1        0.1389
     30 C         -18.3860    4.0400   -2.4710 C.ar    1  UNL1        0.0868
     31 C         -18.9730    3.0790   -3.3240 C.ar    1  UNL1       -0.0028
     32 C         -20.3620    3.1910   -3.5750 C.ar    1  UNL1        0.0832
     33 C         -21.0930    2.2960   -4.5040 C.2     1  UNL1        0.2479
     34 O         -22.1420    1.7840   -4.1300 O.2     1  UNL1       -0.2701
     35 N         -20.5810    2.1950   -5.7750 N.am    1  UNL1       -0.3109
     36 C         -21.1480    1.3170   -6.7850 C.3     1  UNL1        0.0153
     37 C         -20.1350    0.2730   -7.2780 C.3     1  UNL1       -0.0191
     38 C         -19.7280   -0.8420   -6.3440 C.2     1  UNL1       -0.0865
     39 C         -20.2680   -1.1500   -5.1550 C.2     1  UNL1       -0.0879
     40 C         -19.8480   -2.3220   -4.3110 C.3     1  UNL1       -0.0347
     41 C         -19.4830   -1.9360   -2.8720 C.3     1  UNL1       -0.0488
     42 C         -17.9810   -1.7310   -2.6270 C.3     1  UNL1       -0.0385
     43 C         -17.3490   -0.5020   -3.3080 C.3     1  UNL1        0.0685
     44 C         -17.9820    0.7910   -2.8080 C.2     1  UNL1        0.1455
     45 C         -18.1500    1.9090   -3.8320 C.3     1  UNL1        0.0338
     46 O         -18.2850    0.9330   -1.6210 O.2     1  UNL1       -0.2966
     47 C         -15.8440   -0.4090   -3.0130 C.3     1  UNL1        0.1656
     48 O         -15.2970    0.6560   -3.7800 O.3     1  UNL1       -0.3663
     49 O         -15.2260   -1.6260   -3.4160 O.3     1  UNL1       -0.3511
     50 C         -13.9250   -1.8030   -2.8660 C.3     1  UNL1        0.0478
     51 C         -13.3800   -3.1310   -3.3530 C.3     1  UNL1       -0.0415
     52 CL        -16.6890    4.0120   -2.1000 Cl      1  UNL1       -0.0794
     53 O         -18.6150    6.0050   -1.0670 O.3     1  UNL1       -0.5052
     54 O         -22.4860    4.2870   -3.0870 O.3     1  UNL1       -0.5059
@<TRIPOS>BOND
     1    20    37    1
     2     6    36    1
     3     7    37    1
     4    37    36    1
     5    37    38    1
     6    36    19    1
     7    36    35    1
     8     1    38    1
     9    38    39    2
    10     5    35    1
    11    35    33   am
    12    39     2    1
    13    39    40    1
    14     8    40    1
    15    24    45    1
    16    33    34    2
    17    33    32    1
    18    18    51    1
    19    11    43    1
    20    40    21    1
    21    40    41    1
    22    12    45    1
    23    45    31    1
    24    45    44    1
    25    48    14    1
    26    48    47    1
    27    32    31   ar
    28    32    27   ar
    29    49    47    1
    30    49    50    1
    31     3    54    1
    32    51    26    1
    33    51    16    1
    34    51    50    1
    35    31    30   ar
    36    43    47    1
    37    43    44    1
    38    43    42    1
    39    25    50    1
    40    54    27    1
    41    47    13    1
    42    23    42    1
    43    27    28   ar
    44    41    42    1
    45    41    22    1
    46    41     9    1
    47    50    15    1
    48    44    46    2
    49    42    10    1
    50    30    52    1
    51    30    29   ar
    52    28    29   ar
    53    28     4    1
    54    29    53    1
    55    53    17    1
