@<TRIPOS>MOLECULE
25.35300
 54 55 0 0 0
SMALL
GASTEIGER

@<TRIPOS>ATOM
      1 H         -12.6440    2.5510   -0.1660 H       1  UNL1        0.0569
      2 H         -14.2240    4.9190   -1.3140 H       1  UNL1        0.0569
      3 H         -13.8120   -0.8650   -3.6260 H       1  UNL1        0.2922
      4 H         -16.2590   -2.5300   -5.4450 H       1  UNL1        0.0691
      5 H         -15.2430    3.0870   -4.1060 H       1  UNL1        0.1490
      6 H         -13.5180    4.3920   -3.5630 H       1  UNL1        0.0465
      7 H         -11.4770    3.7210   -2.3470 H       1  UNL1        0.0322
      8 H         -14.4250    5.2500    1.1840 H       1  UNL1        0.0307
      9 H         -16.5150    4.0580    1.6340 H       1  UNL1        0.0268
     10 H         -16.5080    1.8900    1.0450 H       1  UNL1        0.0274
     11 H         -18.3480    3.0420   -0.4750 H       1  UNL1        0.0427
     12 H         -18.7620    2.3460   -3.3360 H       1  UNL1        0.0391
     13 H         -18.2610    0.6940    0.2860 H       1  UNL1        0.0914
     14 H         -17.1500   -0.7660   -0.7330 H       1  UNL1        0.2125
     15 H         -19.9920   -0.6590   -0.2250 H       1  UNL1        0.0558
     16 H         -21.8690   -1.2810   -1.7230 H       1  UNL1        0.0252
     17 H         -19.4680   -1.2450   -6.1060 H       1  UNL1        0.2922
     18 H         -21.3220   -0.0880   -2.9210 H       1  UNL1        0.0252
     19 H         -12.6610    3.1110   -4.4090 H       1  UNL1        0.0465
     20 H         -11.9710    2.0540   -2.3270 H       1  UNL1        0.0322
     21 H         -14.0910    3.5450    1.4690 H       1  UNL1        0.0307
     22 H         -16.5300    4.6870    0.0070 H       1  UNL1        0.0268
     23 H         -15.4530    2.0650   -0.3330 H       1  UNL1        0.0274
     24 H         -17.5150    3.1110   -4.2730 H       1  UNL1        0.0391
     25 H         -19.3700   -1.1880   -1.8120 H       1  UNL1        0.0558
     26 H         -21.9130    0.4610   -1.3590 H       1  UNL1        0.0252
     27 C         -15.5650   -0.7760   -4.4080 C.ar    1  UNL1        0.1328
     28 C         -16.5110   -1.5400   -5.0780 C.ar    1  UNL1        0.0235
     29 C         -17.7620   -1.0050   -5.2990 C.ar    1  UNL1        0.1389
     30 C         -18.0890    0.2680   -4.8120 C.ar    1  UNL1        0.0868
     31 C         -17.1660    1.0460   -4.0550 C.ar    1  UNL1       -0.0028
     32 C         -15.8450    0.5350   -3.9280 C.ar    1  UNL1        0.0832
     33 C         -14.6490    1.2500   -3.3690 C.2     1  UNL1        0.2479
     34 O         -13.7890    0.5770   -2.8030 O.2     1  UNL1       -0.2701
     35 N         -14.4940    2.5820   -3.6550 N.am    1  UNL1       -0.3109
     36 C         -13.2490    3.3310   -3.5100 C.3     1  UNL1        0.0153
     37 C         -12.3620    3.0760   -2.2780 C.3     1  UNL1       -0.0191
     38 C         -12.9650    3.2740   -0.9150 C.2     1  UNL1       -0.0865
     39 C         -13.8790    4.1960   -0.5770 C.2     1  UNL1       -0.0879
     40 C         -14.5550    4.2460    0.7640 C.3     1  UNL1       -0.0347
     41 C         -16.0530    3.9350    0.6450 C.3     1  UNL1       -0.0488
     42 C         -16.3310    2.5020    0.1520 C.3     1  UNL1       -0.0385
     43 C         -17.5360    2.3850   -0.8140 C.3     1  UNL1        0.0685
     44 C         -17.1340    2.9210   -2.2030 C.2     1  UNL1        0.1455
     45 C         -17.6790    2.3560   -3.4900 C.3     1  UNL1        0.0338
     46 O         -16.4990    3.9840   -2.2990 O.2     1  UNL1       -0.2966
     47 C         -18.0680    0.9450   -0.7660 C.3     1  UNL1        0.1656
     48 O         -17.1030    0.0450   -1.2660 O.3     1  UNL1       -0.3663
     49 O         -19.2980    0.8510   -1.4720 O.3     1  UNL1       -0.3511
     50 C         -19.9390   -0.4100   -1.2910 C.3     1  UNL1        0.0478
     51 C         -21.3430   -0.3310   -1.8550 C.3     1  UNL1       -0.0415
     52 CL        -19.6680    0.8670   -5.2430 Cl      1  UNL1       -0.0794
     53 O         -18.6500   -1.7680   -6.0090 O.3     1  UNL1       -0.5052
     54 O         -14.3420   -1.3910   -4.2670 O.3     1  UNL1       -0.5059
@<TRIPOS>BOND
     1    17    53    1
     2    53    29    1
     3     4    28    1
     4    29    28   ar
     5    29    30   ar
     6    52    30    1
     7    28    27   ar
     8    30    31   ar
     9    19    36    1
    10    27    54    1
    11    27    32   ar
    12    24    45    1
    13    54     3    1
    14     5    35    1
    15    31    32   ar
    16    31    45    1
    17    32    33    1
    18    35    36    1
    19    35    33   am
    20     6    36    1
    21    36    37    1
    22    45    12    1
    23    45    44    1
    24    33    34    2
    25    18    51    1
    26     7    37    1
    27    20    37    1
    28    46    44    2
    29    37    38    1
    30    44    43    1
    31    51    16    1
    32    51    26    1
    33    51    50    1
    34    25    50    1
    35    49    50    1
    36    49    47    1
    37     2    39    1
    38    50    15    1
    39    48    47    1
    40    48    14    1
    41    38    39    2
    42    38     1    1
    43    43    47    1
    44    43    11    1
    45    43    42    1
    46    47    13    1
    47    39    40    1
    48    23    42    1
    49    22    41    1
    50    42    41    1
    51    42    10    1
    52    41    40    1
    53    41     9    1
    54    40     8    1
    55    40    21    1
