@<TRIPOS>MOLECULE
25.84898
 54 55 0 0 0
SMALL
GASTEIGER

@<TRIPOS>ATOM
      1 H         -13.1220    3.6640   -1.2040 H       1  UNL1        0.0569
      2 H         -15.2140    5.8850   -1.5420 H       1  UNL1        0.0569
      3 H         -14.3580    0.4880   -4.2510 H       1  UNL1        0.2922
      4 H         -16.7660   -1.5940   -5.6650 H       1  UNL1        0.0691
      5 H         -16.4320    4.0710   -4.7400 H       1  UNL1        0.1490
      6 H         -15.0700    5.7280   -3.9230 H       1  UNL1        0.0465
      7 H         -12.6820    5.4180   -3.2980 H       1  UNL1        0.0322
      8 H         -14.8790    5.7530    0.9680 H       1  UNL1        0.0307
      9 H         -16.7010    4.2460    1.5610 H       1  UNL1        0.0268
     10 H         -16.5760    2.2180    0.6030 H       1  UNL1        0.0274
     11 H         -18.8060    3.3800   -0.3000 H       1  UNL1        0.0427
     12 H         -19.6440    2.9950   -3.2990 H       1  UNL1        0.0391
     13 H         -17.7870    0.8390   -1.6600 H       1  UNL1        0.0914
     14 H         -20.3470    1.5940   -0.7600 H       1  UNL1        0.2125
     15 H         -17.5840   -0.9880   -0.2820 H       1  UNL1        0.0558
     16 H         -18.5390   -2.2690    1.6380 H       1  UNL1        0.0252
     17 H         -20.2150   -0.9000   -5.7090 H       1  UNL1        0.2922
     18 H         -19.4270   -0.8180    2.1590 H       1  UNL1        0.0252
     19 H         -14.1570    4.8900   -5.1640 H       1  UNL1        0.0465
     20 H         -12.8150    3.6930   -3.5030 H       1  UNL1        0.0322
     21 H         -14.3210    4.0880    0.8300 H       1  UNL1        0.0307
     22 H         -17.1170    5.1120    0.1040 H       1  UNL1        0.0268
     23 H         -15.8840    2.7500   -0.9040 H       1  UNL1        0.0274
     24 H         -18.5210    3.8740   -4.2810 H       1  UNL1        0.0391
     25 H         -19.3690   -0.9820   -0.3340 H       1  UNL1        0.0558
     26 H         -17.6690   -0.8260    2.2100 H       1  UNL1        0.0252
     27 C         -16.2020    0.2790   -4.7660 C.ar    1  UNL1        0.1328
     28 C         -17.1100   -0.6450   -5.2650 C.ar    1  UNL1        0.0235
     29 C         -18.4540   -0.3290   -5.2620 C.ar    1  UNL1        0.1389
     30 C         -18.9040    0.8880   -4.7290 C.ar    1  UNL1        0.0868
     31 C         -18.0030    1.8300   -4.1580 C.ar    1  UNL1       -0.0028
     32 C         -16.6170    1.5350   -4.2540 C.ar    1  UNL1        0.0832
     33 C         -15.5000    2.4530   -3.8760 C.2     1  UNL1        0.2479
     34 O         -14.5120    1.9440   -3.3540 O.2     1  UNL1       -0.2701
     35 N         -15.6040    3.7670   -4.2490 N.am    1  UNL1       -0.3109
     36 C         -14.5580    4.7850   -4.1490 C.3     1  UNL1        0.0153
     37 C         -13.3790    4.5780   -3.1850 C.3     1  UNL1       -0.0191
     38 C         -13.6900    4.4370   -1.7190 C.2     1  UNL1       -0.0865
     39 C         -14.6260    5.1180   -1.0420 C.2     1  UNL1       -0.0879
     40 C         -14.9950    4.8310    0.3870 C.3     1  UNL1       -0.0347
     41 C         -16.4440    4.3420    0.4980 C.3     1  UNL1       -0.0488
     42 C         -16.6750    2.9780   -0.1810 C.3     1  UNL1       -0.0385
     43 C         -18.0430    2.8620   -0.8970 C.3     1  UNL1        0.0685
     44 C         -17.9750    3.6200   -2.2410 C.2     1  UNL1        0.1455
     45 C         -18.5770    3.0820   -3.5220 C.3     1  UNL1        0.0338
     46 O         -17.5630    4.7890   -2.2680 O.2     1  UNL1       -0.2966
     47 C         -18.4660    1.3910   -1.0030 C.3     1  UNL1        0.1656
     48 O         -19.7880    1.3020   -1.5020 O.3     1  UNL1       -0.3663
     49 O         -18.4810    0.7900    0.2870 O.3     1  UNL1       -0.3511
     50 C         -18.4910   -0.6360    0.2220 C.3     1  UNL1        0.0478
     51 C         -18.5340   -1.1760    1.6370 C.3     1  UNL1       -0.0415
     52 CL        -20.6140    1.1930   -4.8450 Cl      1  UNL1       -0.0794
     53 O         -19.3100   -1.2540   -5.7950 O.3     1  UNL1       -0.5052
     54 O         -14.8880   -0.1190   -4.8170 O.3     1  UNL1       -0.5059
@<TRIPOS>BOND
     1    53    17    1
     2    53    29    1
     3     4    28    1
     4    28    29   ar
     5    28    27   ar
     6    29    30   ar
     7    19    36    1
     8    52    30    1
     9    54    27    1
    10    54     3    1
    11    27    32   ar
    12     5    35    1
    13    30    31   ar
    14    24    45    1
    15    32    31   ar
    16    32    33    1
    17    35    36    1
    18    35    33   am
    19    31    45    1
    20    36     6    1
    21    36    37    1
    22    33    34    2
    23    45    12    1
    24    45    44    1
    25    20    37    1
    26     7    37    1
    27    37    38    1
    28    46    44    2
    29    44    43    1
    30    38     1    1
    31    38    39    2
    32    13    47    1
    33     2    39    1
    34    48    47    1
    35    48    14    1
    36    39    40    1
    37    47    43    1
    38    47    49    1
    39    23    42    1
    40    43    11    1
    41    43    42    1
    42    25    50    1
    43    15    50    1
    44    42    41    1
    45    42    10    1
    46    22    41    1
    47    50    49    1
    48    50    51    1
    49    40    41    1
    50    40    21    1
    51    40     8    1
    52    41     9    1
    53    51    16    1
    54    51    18    1
    55    51    26    1
