@<TRIPOS>MOLECULE
20.88036
 54 55 0 0 0
SMALL
GASTEIGER

@<TRIPOS>ATOM
      1 H         -15.4350    2.5180   -7.8040 H       1  UNL1        0.0569
      2 H         -15.5770    2.8920   -4.7610 H       1  UNL1        0.0569
      3 H         -20.7470    0.6750   -5.1560 H       1  UNL1        0.2922
      4 H         -21.2620   -0.4270   -1.8660 H       1  UNL1        0.0691
      5 H         -18.4580    1.6660   -4.9130 H       1  UNL1        0.1490
      6 H         -19.2530    2.1570   -7.3610 H       1  UNL1        0.0465
      7 H         -17.6390    3.6090   -5.9450 H       1  UNL1        0.0322
      8 H         -13.1700    3.0460   -4.9900 H       1  UNL1        0.0307
      9 H         -13.6550    0.6740   -4.3270 H       1  UNL1        0.0268
     10 H         -12.9120   -0.6110   -6.7640 H       1  UNL1        0.0274
     11 H         -14.2760   -2.0560   -5.6810 H       1  UNL1        0.0427
     12 H         -16.8980   -2.7740   -5.0030 H       1  UNL1        0.0391
     13 H         -16.2100   -0.6840   -7.6410 H       1  UNL1        0.0914
     14 H         -17.3500   -2.3460   -7.3120 H       1  UNL1        0.2125
     15 H         -15.8030   -1.0420   -9.8960 H       1  UNL1        0.0558
     16 H         -14.6140   -2.3360  -11.6690 H       1  UNL1        0.0252
     17 H         -19.0800   -2.5520   -0.1070 H       1  UNL1        0.2922
     18 H         -13.6400   -3.1470  -10.4190 H       1  UNL1        0.0252
     19 H         -17.8700    1.1360   -7.7760 H       1  UNL1        0.0465
     20 H         -17.5290    3.7360   -7.6930 H       1  UNL1        0.0322
     21 H         -13.2040    2.6120   -6.6840 H       1  UNL1        0.0307
     22 H         -12.2210    0.8500   -5.2920 H       1  UNL1        0.0268
     23 H         -14.1550    0.4750   -7.2730 H       1  UNL1        0.0274
     24 H         -15.9390   -2.4610   -3.5810 H       1  UNL1        0.0391
     25 H         -15.9870   -2.7990   -9.6400 H       1  UNL1        0.0558
     26 H         -13.4590   -1.4160  -10.6750 H       1  UNL1        0.0252
     27 C         -20.0540   -0.3170   -3.6450 C.ar    1  UNL1        0.1328
     28 C         -20.3430   -0.7390   -2.3550 C.ar    1  UNL1        0.0235
     29 C         -19.4510   -1.5760   -1.7000 C.ar    1  UNL1        0.1389
     30 C         -18.2580   -1.9920   -2.3130 C.ar    1  UNL1        0.0868
     31 C         -17.9290   -1.5590   -3.6140 C.ar    1  UNL1       -0.0028
     32 C         -18.8660   -0.7230   -4.2800 C.ar    1  UNL1        0.0832
     33 C         -18.6160   -0.2430   -5.6630 C.2     1  UNL1        0.2479
     34 O         -18.5330   -1.0370   -6.5910 O.2     1  UNL1       -0.2701
     35 N         -18.4940    1.1220   -5.7710 N.am    1  UNL1       -0.3109
     36 C         -18.2650    1.8260   -7.0230 C.3     1  UNL1        0.0153
     37 C         -17.3590    3.0550   -6.8500 C.3     1  UNL1       -0.0191
     38 C         -15.8880    2.7310   -6.8370 C.2     1  UNL1       -0.0865
     39 C         -15.1240    2.7000   -5.7320 C.2     1  UNL1       -0.0879
     40 C         -13.6530    2.3760   -5.7110 C.3     1  UNL1       -0.0347
     41 C         -13.3160    0.9180   -5.3370 C.3     1  UNL1       -0.0488
     42 C         -13.8020   -0.0810   -6.3960 C.3     1  UNL1       -0.0385
     43 C         -14.8410   -1.1820   -6.0320 C.3     1  UNL1        0.0685
     44 C         -15.8340   -0.8550   -4.9060 C.2     1  UNL1        0.1455
     45 C         -16.6340   -1.9990   -4.2880 C.3     1  UNL1        0.0338
     46 O         -15.9500    0.2730   -4.4210 O.2     1  UNL1       -0.2966
     47 C         -15.6020   -1.5430   -7.3300 C.3     1  UNL1        0.1656
     48 O         -16.4380   -2.6700   -7.1480 O.3     1  UNL1       -0.3663
     49 O         -14.6610   -1.8390   -8.3640 O.3     1  UNL1       -0.3511
     50 C         -15.2750   -1.9670   -9.6430 C.3     1  UNL1        0.0478
     51 C         -14.1890   -2.2320  -10.6670 C.3     1  UNL1       -0.0415
     52 CL        -17.2310   -3.0570   -1.4070 Cl      1  UNL1       -0.0794
     53 O         -19.7940   -1.9740   -0.4350 O.3     1  UNL1       -0.5052
     54 O         -20.9910    0.4930   -4.2300 O.3     1  UNL1       -0.5059
@<TRIPOS>BOND
     1    16    51    1
     2    26    51    1
     3    51    18    1
     4    51    50    1
     5    15    50    1
     6    50    25    1
     7    50    49    1
     8    49    47    1
     9     1    38    1
    10    19    36    1
    11    20    37    1
    12    13    47    1
    13     6    36    1
    14    47    48    1
    15    47    43    1
    16    14    48    1
    17    23    42    1
    18    36    37    1
    19    36    35    1
    20    37    38    1
    21    37     7    1
    22    38    39    2
    23    10    42    1
    24    21    40    1
    25    34    33    2
    26    42    43    1
    27    42    41    1
    28    43    11    1
    29    43    44    1
    30    35    33   am
    31    35     5    1
    32    39    40    1
    33    39     2    1
    34    40    41    1
    35    40     8    1
    36    33    32    1
    37    41    22    1
    38    41     9    1
    39     3    54    1
    40    12    45    1
    41    44    46    2
    42    44    45    1
    43    45    31    1
    44    45    24    1
    45    32    27   ar
    46    32    31   ar
    47    54    27    1
    48    27    28   ar
    49    31    30   ar
    50    28     4    1
    51    28    29   ar
    52    30    29   ar
    53    30    52    1
    54    29    53    1
    55    53    17    1
