@<TRIPOS>MOLECULE
16.83240
 54 55 0 0 0
SMALL
GASTEIGER

@<TRIPOS>ATOM
      1 H         -15.2970    4.4630   -7.3830 H       1  UNL1        0.0569
      2 H         -14.7270    7.0860   -5.8890 H       1  UNL1        0.0569
      3 H         -18.7920    1.8440   -8.1530 H       1  UNL1        0.2922
      4 H         -19.5770   -1.1990   -6.6610 H       1  UNL1        0.0691
      5 H         -18.4350    4.0090   -4.6990 H       1  UNL1        0.1490
      6 H         -17.7480    6.1290   -5.1290 H       1  UNL1        0.0465
      7 H         -16.9020    7.0260   -7.1870 H       1  UNL1        0.0322
      8 H         -12.4790    6.5800   -6.5570 H       1  UNL1        0.0307
      9 H         -12.8280    5.6630   -4.2140 H       1  UNL1        0.0268
     10 H         -12.2410    2.9650   -4.5610 H       1  UNL1        0.0274
     11 H         -14.8780    4.3280   -3.9400 H       1  UNL1        0.0427
     12 H         -16.5580    1.9890   -2.6870 H       1  UNL1        0.0391
     13 H         -13.2880    2.2710   -2.2970 H       1  UNL1        0.0914
     14 H         -14.5450    3.0510   -0.6880 H       1  UNL1        0.2125
     15 H         -11.3640    3.0440   -1.2630 H       1  UNL1        0.0558
     16 H         -10.2780    4.8990    0.0060 H       1  UNL1        0.0252
     17 H         -18.2150   -2.2850   -3.6050 H       1  UNL1        0.2922
     18 H         -11.5050    6.0330   -0.6080 H       1  UNL1        0.0252
     19 H         -18.9470    5.8250   -6.3840 H       1  UNL1        0.0465
     20 H         -17.2660    5.5850   -8.0910 H       1  UNL1        0.0322
     21 H         -12.8970    5.0180   -7.2160 H       1  UNL1        0.0307
     22 H         -11.4880    4.9950   -5.1320 H       1  UNL1        0.0268
     23 H         -13.3840    3.1810   -5.8630 H       1  UNL1        0.0274
     24 H         -16.8770    3.2870   -3.7520 H       1  UNL1        0.0391
     25 H         -12.5150    3.7990   -0.1260 H       1  UNL1        0.0558
     26 H         -10.3710    5.2880   -1.7280 H       1  UNL1        0.0252
     27 C         -18.7490    0.7850   -6.5520 C.ar    1  UNL1        0.1328
     28 C         -18.9940   -0.4950   -6.0740 C.ar    1  UNL1        0.0235
     29 C         -18.4600   -0.8690   -4.8540 C.ar    1  UNL1        0.1389
     30 C         -17.6830    0.0250   -4.1010 C.ar    1  UNL1        0.0868
     31 C         -17.4470    1.3480   -4.5490 C.ar    1  UNL1       -0.0028
     32 C         -18.0070    1.7250   -5.8000 C.ar    1  UNL1        0.0832
     33 C         -17.8530    3.0710   -6.4240 C.2     1  UNL1        0.2479
     34 O         -17.6860    3.1370   -7.6380 O.2     1  UNL1       -0.2701
     35 N         -18.0200    4.1610   -5.6090 N.am    1  UNL1       -0.3109
     36 C         -17.9450    5.5470   -6.0370 C.3     1  UNL1        0.0153
     37 C         -16.9170    5.9310   -7.1090 C.3     1  UNL1       -0.0191
     38 C         -15.5140    5.4240   -6.9180 C.2     1  UNL1       -0.0865
     39 C         -14.5220    6.1150   -6.3350 C.2     1  UNL1       -0.0879
     40 C         -13.0830    5.6840   -6.3640 C.3     1  UNL1       -0.0347
     41 C         -12.5840    5.0300   -5.0740 C.3     1  UNL1       -0.0488
     42 C         -13.0840    3.5880   -4.8900 C.3     1  UNL1       -0.0385
     43 C         -14.2290    3.4480   -3.8660 C.3     1  UNL1        0.0685
     44 C         -15.0800    2.2230   -4.2000 C.2     1  UNL1        0.1455
     45 C         -16.5310    2.2560   -3.7470 C.3     1  UNL1        0.0338
     46 O         -14.5900    1.2210   -4.7270 O.2     1  UNL1       -0.2966
     47 C         -13.7240    3.2700   -2.4250 C.3     1  UNL1        0.1656
     48 O         -14.8320    3.4100   -1.5440 O.3     1  UNL1       -0.3663
     49 O         -12.7780    4.2850   -2.1230 O.3     1  UNL1       -0.3511
     50 C         -11.9240    3.9570   -1.0340 C.3     1  UNL1        0.0478
     51 C         -10.9600    5.1080   -0.8230 C.3     1  UNL1       -0.0415
     52 CL        -17.0260   -0.5720   -2.6050 Cl      1  UNL1       -0.0794
     53 O         -18.7110   -2.1490   -4.4330 O.3     1  UNL1       -0.5052
     54 O         -19.2700    1.0640   -7.7910 O.3     1  UNL1       -0.5059
@<TRIPOS>BOND
     1     3    54    1
     2    20    37    1
     3    54    27    1
     4    34    33    2
     5     1    38    1
     6    21    40    1
     7     7    37    1
     8    37    38    1
     9    37    36    1
    10    38    39    2
    11     4    28    1
    12     8    40    1
    13    27    28   ar
    14    27    32   ar
    15    33    32    1
    16    33    35   am
    17    19    36    1
    18    40    39    1
    19    40    41    1
    20    39     2    1
    21    28    29   ar
    22    36    35    1
    23    36     6    1
    24    23    42    1
    25    32    31   ar
    26    35     5    1
    27    22    41    1
    28    41    42    1
    29    41     9    1
    30    42    10    1
    31    42    43    1
    32    29    53    1
    33    29    30   ar
    34    46    44    2
    35    31    30   ar
    36    31    45    1
    37    53    17    1
    38    44    43    1
    39    44    45    1
    40    30    52    1
    41    11    43    1
    42    43    47    1
    43    24    45    1
    44    45    12    1
    45    47    13    1
    46    47    49    1
    47    47    48    1
    48    49    50    1
    49    26    51    1
    50    48    14    1
    51    15    50    1
    52    50    51    1
    53    50    25    1
    54    51    18    1
    55    51    16    1
