@<TRIPOS>MOLECULE
8.27520
 54 55 0 0 0
SMALL
GASTEIGER

@<TRIPOS>ATOM
      1 H         -22.2170   -1.5700   -3.9240 H       1  UNL1        0.0569
      2 H         -19.4180   -1.7050   -5.1800 H       1  UNL1        0.0569
      3 H         -23.1280    2.7340   -1.4880 H       1  UNL1        0.2922
      4 H         -21.1850    5.3860   -0.3110 H       1  UNL1        0.0691
      5 H         -21.0050    2.3580   -4.9290 H       1  UNL1        0.1490
      6 H         -22.7770    1.4670   -6.1460 H       1  UNL1        0.0465
      7 H         -20.8650   -0.1190   -6.3090 H       1  UNL1        0.0322
      8 H         -19.2680   -3.6830   -3.7650 H       1  UNL1        0.0307
      9 H         -19.3330   -2.9980   -1.3170 H       1  UNL1        0.0268
     10 H         -17.3350   -1.8620   -1.2440 H       1  UNL1        0.0274
     11 H         -17.7630   -0.7180   -4.0480 H       1  UNL1        0.0427
     12 H         -17.9420    2.0010   -3.9660 H       1  UNL1        0.0391
     13 H         -15.5240   -0.1590   -2.0290 H       1  UNL1        0.0914
     14 H         -14.8200    1.1490   -3.5770 H       1  UNL1        0.2125
     15 H         -13.6410   -1.5040   -2.2860 H       1  UNL1        0.0558
     16 H         -12.1730   -2.8120   -3.8260 H       1  UNL1        0.0252
     17 H         -17.6920    5.5630   -0.7210 H       1  UNL1        0.2922
     18 H         -13.4550   -2.7880   -5.0610 H       1  UNL1        0.0252
     19 H         -23.3970    0.6170   -4.7240 H       1  UNL1        0.0465
     20 H         -22.4270   -0.9290   -6.4430 H       1  UNL1        0.0322
     21 H         -20.8300   -3.3670   -3.0450 H       1  UNL1        0.0307
     22 H         -19.8100   -1.3830   -1.7910 H       1  UNL1        0.0268
     23 H         -17.2440   -2.7890   -2.7290 H       1  UNL1        0.0274
     24 H         -19.3770    1.0190   -3.9470 H       1  UNL1        0.0391
     25 H         -13.3740   -0.6240   -3.8160 H       1  UNL1        0.0558
     26 H         -13.7160   -3.6570   -3.5530 H       1  UNL1        0.0252
     27 C         -21.4410    3.6450   -1.5520 C.ar    1  UNL1        0.1328
     28 C         -20.7000    4.6520   -0.9470 C.ar    1  UNL1        0.0235
     29 C         -19.3290    4.6970   -1.1570 C.ar    1  UNL1        0.1389
     30 C         -18.6870    3.7330   -1.9490 C.ar    1  UNL1        0.0868
     31 C         -19.4230    2.7020   -2.5760 C.ar    1  UNL1       -0.0028
     32 C         -20.8260    2.7000   -2.3940 C.ar    1  UNL1        0.0832
     33 C         -21.7300    1.7500   -3.0850 C.2     1  UNL1        0.2479
     34 O         -22.5710    1.1460   -2.4290 O.2     1  UNL1       -0.2701
     35 N         -21.6380    1.7250   -4.4580 N.am    1  UNL1       -0.3109
     36 C         -22.4840    0.8720   -5.2740 C.3     1  UNL1        0.0153
     37 C         -21.7660   -0.3980   -5.7480 C.3     1  UNL1       -0.0191
     38 C         -21.4170   -1.3430   -4.6300 C.2     1  UNL1       -0.0865
     39 C         -20.2100   -1.9070   -4.4630 C.2     1  UNL1       -0.0879
     40 C         -19.8990   -2.8800   -3.3630 C.3     1  UNL1       -0.0347
     41 C         -19.2430   -2.2590   -2.1250 C.3     1  UNL1       -0.0488
     42 C         -17.7470   -1.9350   -2.2590 C.3     1  UNL1       -0.0385
     43 C         -17.4050   -0.6390   -3.0180 C.3     1  UNL1        0.0685
     44 C         -18.0570    0.5680   -2.3620 C.2     1  UNL1        0.1455
     45 C         -18.7030    1.5810   -3.3010 C.3     1  UNL1        0.0338
     46 O         -18.0240    0.7210   -1.1390 O.2     1  UNL1       -0.2966
     47 C         -15.8940   -0.3690   -3.0410 C.3     1  UNL1        0.1656
     48 O         -15.6580    0.7580   -3.8760 O.3     1  UNL1       -0.3663
     49 O         -15.2400   -1.5020   -3.6000 O.3     1  UNL1       -0.3511
     50 C         -13.8360   -1.5080   -3.3640 C.3     1  UNL1        0.0478
     51 C         -13.2540   -2.7630   -3.9850 C.3     1  UNL1       -0.0415
     52 CL        -16.9640    3.8580   -2.1340 Cl      1  UNL1       -0.0794
     53 O         -18.6400    5.7080   -0.5420 O.3     1  UNL1       -0.5052
     54 O         -22.7850    3.6310   -1.2810 O.3     1  UNL1       -0.5059
@<TRIPOS>BOND
     1    20    37    1
     2     7    37    1
     3     6    36    1
     4    37    36    1
     5    37    38    1
     6    36    19    1
     7    36    35    1
     8     2    39    1
     9    18    51    1
    10     5    35    1
    11    38    39    2
    12    38     1    1
    13    39    40    1
    14    35    33   am
    15    11    43    1
    16    51    16    1
    17    51    26    1
    18    51    50    1
    19    12    45    1
    20    24    45    1
    21    48    14    1
    22    48    47    1
    23    25    50    1
    24     8    40    1
    25    49    50    1
    26    49    47    1
    27    50    15    1
    28    40    21    1
    29    40    41    1
    30    45    31    1
    31    45    44    1
    32    33    34    2
    33    33    32    1
    34    47    43    1
    35    47    13    1
    36    43    44    1
    37    43    42    1
    38    23    42    1
    39    31    32   ar
    40    31    30   ar
    41    32    27   ar
    42    44    46    2
    43    42    41    1
    44    42    10    1
    45    52    30    1
    46    41    22    1
    47    41     9    1
    48    30    29   ar
    49    27    54    1
    50    27    28   ar
    51     3    54    1
    52    29    28   ar
    53    29    53    1
    54    28     4    1
    55    17    53    1
