@<TRIPOS>MOLECULE
27.41888
 54 55 0 0 0
SMALL
GASTEIGER

@<TRIPOS>ATOM
      1 H         -17.7820   -0.4640  -10.0110 H       1  UNL1        0.0569
      2 H         -15.4260    0.8850   -8.5780 H       1  UNL1        0.0569
      3 H         -20.8160   -1.2110   -6.4930 H       1  UNL1        0.2922
      4 H         -21.5180   -2.4390   -3.3130 H       1  UNL1        0.0691
      5 H         -17.5110    1.1070   -5.4320 H       1  UNL1        0.1490
      6 H         -16.9160    2.2610   -7.2990 H       1  UNL1        0.0465
      7 H         -18.1200    2.2170   -9.4700 H       1  UNL1        0.0322
      8 H         -14.2950   -0.6100  -10.2740 H       1  UNL1        0.0307
      9 H         -13.9540   -1.2190   -7.8940 H       1  UNL1        0.0268
     10 H         -15.8150   -3.5420   -8.1230 H       1  UNL1        0.0274
     11 H         -14.3770   -2.7640   -6.0050 H       1  UNL1        0.0427
     12 H         -15.6870   -1.5030   -3.5440 H       1  UNL1        0.0391
     13 H         -17.3160   -3.4940   -5.6110 H       1  UNL1        0.0914
     14 H         -16.5190   -4.5590   -3.8580 H       1  UNL1        0.2125
     15 H         -14.3880   -5.5850   -5.1330 H       1  UNL1        0.0558
     16 H         -13.7900   -7.3420   -6.7910 H       1  UNL1        0.0252
     17 H         -19.1350   -2.8170   -0.7500 H       1  UNL1        0.2922
     18 H         -15.1550   -6.8410   -7.8170 H       1  UNL1        0.0252
     19 H         -18.6340    2.5610   -7.1100 H       1  UNL1        0.0465
     20 H         -19.2050    0.9850   -8.8910 H       1  UNL1        0.0322
     21 H         -15.7200   -1.6400  -10.3630 H       1  UNL1        0.0307
     22 H         -13.9340   -2.6200   -8.9320 H       1  UNL1        0.0268
     23 H         -16.6810   -2.0530   -7.8780 H       1  UNL1        0.0274
     24 H         -16.2310    0.0890   -3.9660 H       1  UNL1        0.0391
     25 H         -14.0790   -4.8720   -6.7400 H       1  UNL1        0.0558
     26 H         -15.4680   -7.5490   -6.2360 H       1  UNL1        0.0252
     27 C         -20.1580   -1.5290   -4.7120 C.ar    1  UNL1        0.1328
     28 C         -20.4980   -2.1150   -3.5000 C.ar    1  UNL1        0.0235
     29 C         -19.5250   -2.2590   -2.5320 C.ar    1  UNL1        0.1389
     30 C         -18.2040   -1.8590   -2.7790 C.ar    1  UNL1        0.0868
     31 C         -17.8120   -1.3070   -4.0300 C.ar    1  UNL1       -0.0028
     32 C         -18.8410   -1.0740   -4.9820 C.ar    1  UNL1        0.0832
     33 C         -18.6920   -0.3500   -6.2810 C.2     1  UNL1        0.2479
     34 O         -19.3290   -0.7810   -7.2380 O.2     1  UNL1       -0.2701
     35 N         -17.9650    0.8110   -6.2830 N.am    1  UNL1       -0.3109
     36 C         -17.9020    1.7870   -7.3700 C.3     1  UNL1        0.0153
     37 C         -18.1690    1.3370   -8.8160 C.3     1  UNL1       -0.0191
     38 C         -17.2720    0.2830   -9.4030 C.2     1  UNL1       -0.0865
     39 C         -15.9530    0.1580   -9.1920 C.2     1  UNL1       -0.0879
     40 C         -15.1350   -1.0020   -9.6890 C.3     1  UNL1       -0.0347
     41 C         -14.5950   -1.8430   -8.5260 C.3     1  UNL1       -0.0488
     42 C         -15.7100   -2.5300   -7.7130 C.3     1  UNL1       -0.0385
     43 C         -15.4430   -2.5750   -6.1890 C.3     1  UNL1        0.0685
     44 C         -15.7070   -1.1760   -5.5890 C.2     1  UNL1        0.1455
     45 C         -16.3470   -0.9700   -4.2350 C.3     1  UNL1        0.0338
     46 O         -15.2310   -0.1690   -6.1330 O.2     1  UNL1       -0.2966
     47 C         -16.2480   -3.7200   -5.5490 C.3     1  UNL1        0.1656
     48 O         -15.9110   -3.8710   -4.1820 O.3     1  UNL1       -0.3663
     49 O         -16.0790   -4.9850   -6.1850 O.3     1  UNL1       -0.3511
     50 C         -14.7540   -5.5100   -6.1620 C.3     1  UNL1        0.0478
     51 C         -14.7860   -6.8920   -6.7870 C.3     1  UNL1       -0.0415
     52 CL        -17.0850   -2.0520   -1.4590 Cl      1  UNL1       -0.0794
     53 O         -19.9130   -2.8080   -1.3400 O.3     1  UNL1       -0.5052
     54 O         -21.1930   -1.4180   -5.6080 O.3     1  UNL1       -0.5059
@<TRIPOS>BOND
     1    21    40    1
     2     8    40    1
     3     1    38    1
     4    40    39    1
     5    40    41    1
     6     7    37    1
     7    38    39    2
     8    38    37    1
     9    39     2    1
    10    22    41    1
    11    20    37    1
    12    37    36    1
    13    41     9    1
    14    41    42    1
    15    10    42    1
    16    23    42    1
    17    18    51    1
    18    42    43    1
    19    36     6    1
    20    36    19    1
    21    36    35    1
    22    34    33    2
    23    16    51    1
    24    51    26    1
    25    51    50    1
    26    25    50    1
    27     3    54    1
    28    35    33   am
    29    35     5    1
    30    33    32    1
    31    43    11    1
    32    43    44    1
    33    43    47    1
    34    49    50    1
    35    49    47    1
    36    50    15    1
    37    46    44    2
    38    13    47    1
    39    54    27    1
    40    44    45    1
    41    47    48    1
    42    32    27   ar
    43    32    31   ar
    44    27    28   ar
    45    45    31    1
    46    45    24    1
    47    45    12    1
    48    48    14    1
    49    31    30   ar
    50    28     4    1
    51    28    29   ar
    52    30    29   ar
    53    30    52    1
    54    29    53    1
    55    53    17    1
