@<TRIPOS>MOLECULE
10.58681
 54 55 0 0 0
SMALL
GASTEIGER

@<TRIPOS>ATOM
      1 H         -13.2950   -1.0110   -7.5320 H       1  UNL1        0.0569
      2 H         -14.1260   -3.9230   -7.0320 H       1  UNL1        0.0569
      3 H         -10.6610   -3.2190   -1.7550 H       1  UNL1        0.2922
      4 H         -12.1720   -1.9160    1.1200 H       1  UNL1        0.0691
      5 H         -12.8030   -0.7720   -4.2610 H       1  UNL1        0.1490
      6 H         -10.3480   -1.9120   -5.2640 H       1  UNL1        0.0465
      7 H         -11.8800   -3.5250   -6.3680 H       1  UNL1        0.0322
      8 H         -16.0600   -3.2250   -8.3860 H       1  UNL1        0.0307
      9 H         -17.4600   -1.7420   -6.8850 H       1  UNL1        0.0268
     10 H         -15.9540   -4.0980   -5.6650 H       1  UNL1        0.0274
     11 H         -17.8720   -4.2260   -4.0830 H       1  UNL1        0.0427
     12 H         -14.5780   -2.4770   -4.2710 H       1  UNL1        0.0391
     13 H         -18.8020   -2.2660   -3.0250 H       1  UNL1        0.0914
     14 H         -20.3360   -2.1580   -4.4880 H       1  UNL1        0.2125
     15 H         -19.0450    0.0350   -2.8310 H       1  UNL1        0.0558
     16 H         -18.6920    2.3110   -3.7970 H       1  UNL1        0.0252
     17 H         -15.5330   -0.8760    1.2600 H       1  UNL1        0.2922
     18 H         -17.7790    1.5930   -5.1460 H       1  UNL1        0.0252
     19 H         -11.2660   -0.5480   -5.9140 H       1  UNL1        0.0465
     20 H         -11.1250   -2.4410   -7.5360 H       1  UNL1        0.0322
     21 H         -15.5610   -1.5390   -8.3510 H       1  UNL1        0.0307
     22 H         -16.0340   -1.4280   -5.9070 H       1  UNL1        0.0268
     23 H         -17.5760   -4.0230   -6.3050 H       1  UNL1        0.0274
     24 H         -15.5790   -1.1540   -3.6730 H       1  UNL1        0.0391
     25 H         -19.6970    0.1330   -4.4900 H       1  UNL1        0.0558
     26 H         -17.1350    1.4970   -3.5120 H       1  UNL1        0.0252
     27 C         -12.1780   -2.3190   -0.9950 C.ar    1  UNL1        0.1328
     28 C         -12.7520   -1.9130    0.2020 C.ar    1  UNL1        0.0235
     29 C         -14.0730   -1.4900    0.2050 C.ar    1  UNL1        0.1389
     30 C         -14.8400   -1.5080   -0.9700 C.ar    1  UNL1        0.0868
     31 C         -14.2870   -1.9590   -2.1900 C.ar    1  UNL1       -0.0028
     32 C         -12.9140   -2.2980   -2.1960 C.ar    1  UNL1        0.0832
     33 C         -12.1370   -2.5560   -3.4360 C.2     1  UNL1        0.2479
     34 O         -11.3750   -3.5150   -3.4780 O.2     1  UNL1       -0.2701
     35 N         -12.2130   -1.5810   -4.4060 N.am    1  UNL1       -0.3109
     36 C         -11.3480   -1.5860   -5.5740 C.3     1  UNL1        0.0153
     37 C         -11.8460   -2.4840   -6.7110 C.3     1  UNL1       -0.0191
     38 C         -13.1900   -2.0530   -7.2370 C.2     1  UNL1       -0.0865
     39 C         -14.2440   -2.8790   -7.3190 C.2     1  UNL1       -0.0879
     40 C         -15.6210   -2.4520   -7.7450 C.3     1  UNL1       -0.0347
     41 C         -16.5200   -2.1830   -6.5310 C.3     1  UNL1       -0.0488
     42 C         -16.8360   -3.4510   -5.7280 C.3     1  UNL1       -0.0385
     43 C         -17.3790   -3.2640   -4.2990 C.3     1  UNL1        0.0685
     44 C         -16.2790   -3.1660   -3.2460 C.2     1  UNL1        0.1455
     45 C         -15.1650   -2.1320   -3.4190 C.3     1  UNL1        0.0338
     46 O         -16.3050   -3.9320   -2.2760 O.2     1  UNL1       -0.2966
     47 C         -18.4450   -2.1920   -4.0610 C.3     1  UNL1        0.1656
     48 O         -19.5280   -2.4420   -4.9460 O.3     1  UNL1       -0.3663
     49 O         -17.9110   -0.8980   -4.2940 O.3     1  UNL1       -0.3511
     50 C         -18.7830    0.1520   -3.8880 C.3     1  UNL1        0.0478
     51 C         -18.0610    1.4690   -4.0950 C.3     1  UNL1       -0.0415
     52 CL        -16.4700   -0.9150   -0.8760 Cl      1  UNL1       -0.0794
     53 O         -14.5870   -1.0660    1.4020 O.3     1  UNL1       -0.5052
     54 O         -10.8670   -2.7190   -0.9340 O.3     1  UNL1       -0.5059
@<TRIPOS>BOND
     1     8    40    1
     2    21    40    1
     3    40    39    1
     4    40    41    1
     5    20    37    1
     6     1    38    1
     7    39    38    2
     8    39     2    1
     9    38    37    1
    10     9    41    1
    11    37     7    1
    12    37    36    1
    13    41    22    1
    14    41    42    1
    15    23    42    1
    16    19    36    1
    17    42    10    1
    18    42    43    1
    19    36     6    1
    20    36    35    1
    21    18    51    1
    22    48    14    1
    23    48    47    1
    24    25    50    1
    25    35     5    1
    26    35    33   am
    27    43    11    1
    28    43    47    1
    29    43    44    1
    30    49    47    1
    31    49    50    1
    32    12    45    1
    33    51    50    1
    34    51    16    1
    35    51    26    1
    36    47    13    1
    37    50    15    1
    38    24    45    1
    39    34    33    2
    40    33    32    1
    41    45    44    1
    42    45    31    1
    43    44    46    2
    44    32    31   ar
    45    32    27   ar
    46    31    30   ar
    47     3    54    1
    48    27    54    1
    49    27    28   ar
    50    30    52    1
    51    30    29   ar
    52    28    29   ar
    53    28     4    1
    54    29    53    1
    55    17    53    1
