@<TRIPOS>MOLECULE
11.25965
 54 55 0 0 0
SMALL
GASTEIGER

@<TRIPOS>ATOM
      1 H         -15.3280   -0.1500  -10.7990 H       1  UNL1        0.0569
      2 H         -12.7400   -1.0720   -9.4220 H       1  UNL1        0.0569
      3 H         -18.7270   -4.8910   -8.0150 H       1  UNL1        0.2922
      4 H         -17.4430   -8.0450   -7.2340 H       1  UNL1        0.0691
      5 H         -15.0920   -3.1010   -8.3910 H       1  UNL1        0.1490
      6 H         -16.9400   -1.3970   -7.5650 H       1  UNL1        0.0465
      7 H         -14.5410   -0.7330   -7.8520 H       1  UNL1        0.0322
      8 H         -11.7440   -0.7490  -11.5930 H       1  UNL1        0.0307
      9 H         -13.2550   -1.8690  -13.4490 H       1  UNL1        0.0268
     10 H         -11.4110   -3.1010  -12.6670 H       1  UNL1        0.0274
     11 H         -11.5470   -3.0160  -10.2220 H       1  UNL1        0.0427
     12 H         -15.1540   -4.1570  -11.0320 H       1  UNL1        0.0391
     13 H         -11.6980   -5.8890  -11.2630 H       1  UNL1        0.0914
     14 H         -10.6860   -6.3810   -9.4300 H       1  UNL1        0.2125
     15 H          -9.7480   -6.6130  -12.3250 H       1  UNL1        0.0558
     16 H          -7.3190   -6.2640  -12.7860 H       1  UNL1        0.0252
     17 H         -14.4650   -9.3440   -8.5900 H       1  UNL1        0.2922
     18 H          -7.4000   -4.6750  -11.9880 H       1  UNL1        0.0252
     19 H         -17.2100   -1.2360   -9.3030 H       1  UNL1        0.0465
     20 H         -15.6590    0.5280   -8.3720 H       1  UNL1        0.0322
     21 H         -13.1920    0.0430  -12.1840 H       1  UNL1        0.0307
     22 H         -14.3060   -2.3540  -12.1450 H       1  UNL1        0.0268
     23 H         -12.8040   -4.1510  -12.7670 H       1  UNL1        0.0274
     24 H         -14.1170   -5.5120  -11.3550 H       1  UNL1        0.0391
     25 H          -8.8410   -6.3400  -10.8120 H       1  UNL1        0.0558
     26 H          -8.2910   -4.9440  -13.4820 H       1  UNL1        0.0252
     27 C         -17.2340   -6.0960   -8.1230 C.ar    1  UNL1        0.1328
     28 C         -16.8380   -7.4010   -7.8650 C.ar    1  UNL1        0.0235
     29 C         -15.6620   -7.8680   -8.4290 C.ar    1  UNL1        0.1389
     30 C         -14.8890   -7.0530   -9.2710 C.ar    1  UNL1        0.0868
     31 C         -15.2780   -5.7250   -9.5590 C.ar    1  UNL1       -0.0028
     32 C         -16.4470   -5.2390   -8.9200 C.ar    1  UNL1        0.0832
     33 C         -16.9280   -3.8390   -9.0260 C.2     1  UNL1        0.2479
     34 O         -18.1160   -3.6440   -9.2640 O.2     1  UNL1       -0.2701
     35 N         -16.0330   -2.8500   -8.7030 N.am    1  UNL1       -0.3109
     36 C         -16.4530   -1.4690   -8.5440 C.3     1  UNL1        0.0153
     37 C         -15.2890   -0.4760   -8.6110 C.3     1  UNL1       -0.0191
     38 C         -14.6700   -0.4380   -9.9800 C.2     1  UNL1       -0.0865
     39 C         -13.3980   -0.7800  -10.2390 C.2     1  UNL1       -0.0879
     40 C         -12.8360   -0.8340  -11.6280 C.3     1  UNL1       -0.0347
     41 C         -13.2650   -2.1000  -12.3760 C.3     1  UNL1       -0.0488
     42 C         -12.3700   -3.3300  -12.1830 C.3     1  UNL1       -0.0385
     43 C         -12.0890   -3.8140  -10.7460 C.3     1  UNL1        0.0685
     44 C         -13.3370   -4.1170   -9.9130 C.2     1  UNL1        0.1455
     45 C         -14.4900   -4.8790  -10.5450 C.3     1  UNL1        0.0338
     46 O         -13.4190   -3.7330   -8.7400 O.2     1  UNL1       -0.2966
     47 C         -11.1830   -5.0610  -10.7640 C.3     1  UNL1        0.1656
     48 O         -10.8650   -5.4280   -9.4340 O.3     1  UNL1       -0.3663
     49 O          -9.9880   -4.7430  -11.4710 O.3     1  UNL1       -0.3511
     50 C          -9.1770   -5.8790  -11.7470 C.3     1  UNL1        0.0478
     51 C          -7.9740   -5.4210  -12.5480 C.3     1  UNL1       -0.0415
     52 CL        -13.4580   -7.7550   -9.9560 Cl      1  UNL1       -0.0794
     53 O         -15.3100   -9.1600   -8.1410 O.3     1  UNL1       -0.5052
     54 O         -18.4240   -5.7090   -7.5610 O.3     1  UNL1       -0.5059
@<TRIPOS>BOND
     1    26    51    1
     2     9    41    1
     3    16    51    1
     4    23    42    1
     5    10    42    1
     6    51    18    1
     7    51    50    1
     8    41    42    1
     9    41    22    1
    10    41    40    1
    11    15    50    1
    12    21    40    1
    13    42    43    1
    14    50    49    1
    15    50    25    1
    16    40     8    1
    17    40    39    1
    18    49    47    1
    19    24    45    1
    20    13    47    1
    21    12    45    1
    22     1    38    1
    23    47    43    1
    24    47    48    1
    25    43    11    1
    26    43    44    1
    27    45    44    1
    28    45    31    1
    29    39    38    2
    30    39     2    1
    31    38    37    1
    32    52    30    1
    33    44    46    2
    34    31    30   ar
    35    31    32   ar
    36    48    14    1
    37    19    36    1
    38    30    29   ar
    39    34    33    2
    40    33    32    1
    41    33    35   am
    42    32    27   ar
    43    35    36    1
    44    35     5    1
    45    37    36    1
    46    37    20    1
    47    37     7    1
    48    17    53    1
    49    36     6    1
    50    29    53    1
    51    29    28   ar
    52    27    28   ar
    53    27    54    1
    54     3    54    1
    55    28     4    1
