@<TRIPOS>MOLECULE
11.60455
 54 55 0 0 0
SMALL
GASTEIGER

@<TRIPOS>ATOM
      1 H         -20.5470   -3.4340   -2.7590 H       1  UNL1        0.0569
      2 H         -20.3870   -1.7000   -5.2830 H       1  UNL1        0.0569
      3 H         -23.6020    3.5630   -0.2630 H       1  UNL1        0.2922
      4 H         -21.7920    4.8190    0.1540 H       1  UNL1        0.0691
      5 H         -20.9820   -0.3310   -0.9600 H       1  UNL1        0.1490
      6 H         -23.5170   -1.2190   -1.8720 H       1  UNL1        0.0465
      7 H         -22.4450   -1.4020   -4.1380 H       1  UNL1        0.0322
      8 H         -18.0870   -2.1460   -5.3120 H       1  UNL1        0.0307
      9 H         -18.1480   -4.2190   -3.0930 H       1  UNL1        0.0268
     10 H         -17.0580   -2.5800   -1.5990 H       1  UNL1        0.0274
     11 H         -17.6230   -0.6480   -3.8400 H       1  UNL1        0.0427
     12 H         -18.3300    1.7330   -3.5180 H       1  UNL1        0.0391
     13 H         -15.8800   -0.3050   -1.3480 H       1  UNL1        0.0914
     14 H         -15.0780    1.3190   -2.5060 H       1  UNL1        0.2125
     15 H         -13.7990   -1.3510   -1.4270 H       1  UNL1        0.0558
     16 H         -11.9330   -2.2600   -2.8140 H       1  UNL1        0.0252
     17 H         -18.3850    5.3660   -0.4370 H       1  UNL1        0.2922
     18 H         -12.9750   -2.1910   -4.2550 H       1  UNL1        0.0252
     19 H         -22.2330   -2.2140   -1.1720 H       1  UNL1        0.0465
     20 H         -22.9550   -2.9470   -3.4720 H       1  UNL1        0.0322
     21 H         -18.6830   -3.7800   -5.3960 H       1  UNL1        0.0307
     22 H         -16.7630   -3.4410   -3.8270 H       1  UNL1        0.0268
     23 H         -18.7480   -2.2790   -1.8440 H       1  UNL1        0.0274
     24 H         -19.7450    0.7210   -3.6090 H       1  UNL1        0.0391
     25 H         -13.3900   -0.2350   -2.7590 H       1  UNL1        0.0558
     26 H         -13.3780   -3.2920   -2.9430 H       1  UNL1        0.0252
     27 C         -21.9160    2.9830   -0.9890 C.ar    1  UNL1        0.1328
     28 C         -21.2700    4.0970   -0.4670 C.ar    1  UNL1        0.0235
     29 C         -19.9180    4.2760   -0.7280 C.ar    1  UNL1        0.1389
     30 C         -19.2000    3.3600   -1.5120 C.ar    1  UNL1        0.0868
     31 C         -19.8420    2.2390   -2.0720 C.ar    1  UNL1       -0.0028
     32 C         -21.2140    2.0580   -1.7820 C.ar    1  UNL1        0.0832
     33 C         -21.9600    0.8950   -2.3140 C.2     1  UNL1        0.2479
     34 O         -22.7490    1.0430   -3.2380 O.2     1  UNL1       -0.2701
     35 N         -21.6720   -0.3070   -1.7060 N.am    1  UNL1       -0.3109
     36 C         -22.4610   -1.4960   -1.9680 C.3     1  UNL1        0.0153
     37 C         -22.2340   -2.1300   -3.3470 C.3     1  UNL1       -0.0191
     38 C         -20.8540   -2.7100   -3.5100 C.2     1  UNL1       -0.0865
     39 C         -20.0310   -2.3950   -4.5220 C.2     1  UNL1       -0.0879
     40 C         -18.6320   -2.9050   -4.7360 C.3     1  UNL1       -0.0347
     41 C         -17.7940   -3.2620   -3.4980 C.3     1  UNL1       -0.0488
     42 C         -17.7790   -2.2360   -2.3530 C.3     1  UNL1       -0.0385
     43 C         -17.4560   -0.7870   -2.7680 C.3     1  UNL1        0.0685
     44 C         -18.3970    0.1660   -2.0470 C.2     1  UNL1        0.1455
     45 C         -19.0800    1.2270   -2.9010 C.3     1  UNL1        0.0338
     46 O         -18.6050    0.0660   -0.8340 O.2     1  UNL1       -0.2966
     47 C         -16.0220   -0.3720   -2.4340 C.3     1  UNL1        0.1656
     48 O         -15.7860    0.9000   -3.0220 O.3     1  UNL1       -0.3663
     49 O         -15.1340   -1.3250   -3.0080 O.3     1  UNL1       -0.3511
     50 C         -13.8040   -1.2180   -2.5140 C.3     1  UNL1        0.0478
     51 C         -12.9670   -2.3010   -3.1660 C.3     1  UNL1       -0.0415
     52 CL        -17.5070    3.6530   -1.7460 Cl      1  UNL1       -0.0794
     53 O         -19.3250    5.3810   -0.1750 O.3     1  UNL1       -0.5052
     54 O         -23.2360    2.7750   -0.6980 O.3     1  UNL1       -0.5059
@<TRIPOS>BOND
     1    21    40    1
     2     8    40    1
     3     2    39    1
     4    40    39    1
     5    40    41    1
     6    39    38    2
     7    18    51    1
     8     7    37    1
     9    11    43    1
    10    22    41    1
    11    24    45    1
    12    12    45    1
    13    38    37    1
    14    38     1    1
    15    41     9    1
    16    41    42    1
    17    20    37    1
    18    37    36    1
    19    34    33    2
    20    51    26    1
    21    51    16    1
    22    51    50    1
    23    48    14    1
    24    48    47    1
    25    49    50    1
    26    49    47    1
    27    45    31    1
    28    45    44    1
    29    43    47    1
    30    43    42    1
    31    43    44    1
    32    25    50    1
    33    50    15    1
    34    47    13    1
    35    42    23    1
    36    42    10    1
    37    33    32    1
    38    33    35   am
    39    31    32   ar
    40    31    30   ar
    41    44    46    2
    42    36     6    1
    43    36    35    1
    44    36    19    1
    45    32    27   ar
    46    52    30    1
    47    35     5    1
    48    30    29   ar
    49    27    54    1
    50    27    28   ar
    51    29    28   ar
    52    29    53    1
    53    54     3    1
    54    28     4    1
    55    17    53    1
