@<TRIPOS>MOLECULE
11.06997
 54 55 0 0 0
SMALL
GASTEIGER

@<TRIPOS>ATOM
      1 H         -21.9200    0.6210   -8.3430 H       1  UNL1        0.0569
      2 H         -19.2530    1.5300   -9.5600 H       1  UNL1        0.0569
      3 H         -17.8890   -0.3180   -3.3130 H       1  UNL1        0.2922
      4 H         -15.6960   -3.0150   -3.1870 H       1  UNL1        0.0691
      5 H         -17.5950    0.1210   -7.1270 H       1  UNL1        0.1490
      6 H         -18.4160    2.2060   -7.5070 H       1  UNL1        0.0465
      7 H         -20.8670    2.7140   -7.0140 H       1  UNL1        0.0322
      8 H         -20.3700    0.9830  -11.6190 H       1  UNL1        0.0307
      9 H         -20.5530   -1.4220  -11.9010 H       1  UNL1        0.0268
     10 H         -18.2140   -0.3790  -11.4530 H       1  UNL1        0.0274
     11 H         -18.4970   -0.5730   -8.8750 H       1  UNL1        0.0427
     12 H         -19.7320   -1.8430   -7.4040 H       1  UNL1        0.0391
     13 H         -16.0510   -2.1020   -9.8630 H       1  UNL1        0.0914
     14 H         -15.2440   -1.3330   -8.0180 H       1  UNL1        0.2125
     15 H         -14.5400   -0.8600  -11.1250 H       1  UNL1        0.0558
     16 H         -13.4570    1.3550  -11.5270 H       1  UNL1        0.0252
     17 H         -15.8800   -5.7510   -5.3920 H       1  UNL1        0.2922
     18 H         -14.7680    2.1540  -10.6260 H       1  UNL1        0.0252
     19 H         -18.8290    2.2410   -5.7910 H       1  UNL1        0.0465
     20 H         -21.0190    1.1440   -6.2530 H       1  UNL1        0.0322
     21 H         -21.7910    0.3700  -10.8000 H       1  UNL1        0.0307
     22 H         -20.6500   -1.7100  -10.1740 H       1  UNL1        0.0268
     23 H         -18.4000   -2.1230  -11.4910 H       1  UNL1        0.0274
     24 H         -19.7210   -3.5650   -7.4200 H       1  UNL1        0.0391
     25 H         -14.1750   -0.0380   -9.5830 H       1  UNL1        0.0558
     26 H         -15.1260    1.3430  -12.1470 H       1  UNL1        0.0252
     27 C         -17.1320   -1.8140   -4.2480 C.ar    1  UNL1        0.1328
     28 C         -16.3440   -2.9380   -4.0550 C.ar    1  UNL1        0.0235
     29 C         -16.4350   -3.9800   -4.9620 C.ar    1  UNL1        0.1389
     30 C         -17.3020   -3.9120   -6.0680 C.ar    1  UNL1        0.0868
     31 C         -18.0740   -2.7560   -6.3210 C.ar    1  UNL1       -0.0028
     32 C         -17.9600   -1.6980   -5.3830 C.ar    1  UNL1        0.0832
     33 C         -18.7170   -0.4320   -5.4900 C.2     1  UNL1        0.2479
     34 O         -19.4740   -0.1210   -4.5770 O.2     1  UNL1       -0.2701
     35 N         -18.4000    0.3720   -6.5540 N.am    1  UNL1       -0.3109
     36 C         -18.9870    1.6920   -6.7270 C.3     1  UNL1        0.0153
     37 C         -20.4930    1.6840   -7.0490 C.3     1  UNL1       -0.0191
     38 C         -20.9320    1.0820   -8.3620 C.2     1  UNL1       -0.0865
     39 C         -20.2310    1.0560   -9.5050 C.2     1  UNL1       -0.0879
     40 C         -20.6950    0.3790  -10.7630 C.3     1  UNL1       -0.0347
     41 C         -20.1880   -1.0640  -10.9300 C.3     1  UNL1       -0.0488
     42 C         -18.6570   -1.2250  -10.9140 C.3     1  UNL1       -0.0385
     43 C         -18.0660   -1.3510   -9.4940 C.3     1  UNL1        0.0685
     44 C         -18.4320   -2.6890   -8.8750 C.2     1  UNL1        0.1455
     45 C         -19.0510   -2.6970   -7.4800 C.3     1  UNL1        0.0338
     46 O         -18.2300   -3.7340   -9.4980 O.2     1  UNL1       -0.2966
     47 C         -16.5420   -1.2120   -9.4490 C.3     1  UNL1        0.1656
     48 O         -16.1710   -1.0430   -8.0830 O.3     1  UNL1       -0.3663
     49 O         -16.1680   -0.0340  -10.1530 O.3     1  UNL1       -0.3511
     50 C         -14.7860   -0.0020  -10.4910 C.3     1  UNL1        0.0478
     51 C         -14.5110    1.2860  -11.2420 C.3     1  UNL1       -0.0415
     52 CL        -17.4210   -5.3390   -7.0450 Cl      1  UNL1       -0.0794
     53 O         -15.6660   -5.0860   -4.7100 O.3     1  UNL1       -0.5052
     54 O         -17.0660   -0.8520   -3.2740 O.3     1  UNL1       -0.5059
@<TRIPOS>BOND
     1    26    51    1
     2     9    41    1
     3     8    40    1
     4    16    51    1
     5    23    42    1
     6    10    42    1
     7    51    18    1
     8    51    50    1
     9    15    50    1
    10    41    42    1
    11    41    40    1
    12    41    22    1
    13    42    43    1
    14    21    40    1
    15    40    39    1
    16    50    49    1
    17    50    25    1
    18    49    47    1
    19    13    47    1
    20     2    39    1
    21    39    38    2
    22    46    44    2
    23    43    47    1
    24    43    11    1
    25    43    44    1
    26    47    48    1
    27    44    45    1
    28    38     1    1
    29    38    37    1
    30    48    14    1
    31     6    36    1
    32    45    24    1
    33    45    12    1
    34    45    31    1
    35     5    35    1
    36    37     7    1
    37    37    36    1
    38    37    20    1
    39    52    30    1
    40    36    35    1
    41    36    19    1
    42    35    33   am
    43    31    30   ar
    44    31    32   ar
    45    30    29   ar
    46    33    32    1
    47    33    34    2
    48    17    53    1
    49    32    27   ar
    50    29    53    1
    51    29    28   ar
    52    27    28   ar
    53    27    54    1
    54    28     4    1
    55     3    54    1
