@<TRIPOS>MOLECULE
10.21539
 54 55 0 0 0
SMALL
GASTEIGER

@<TRIPOS>ATOM
      1 H         -13.8960    5.5600   -2.2750 H       1  UNL1        0.0569
      2 H         -15.1750    4.5170   -4.8630 H       1  UNL1        0.0569
      3 H         -19.4990    2.5820   -2.8880 H       1  UNL1        0.2922
      4 H         -19.8490   -0.7990   -2.0480 H       1  UNL1        0.0691
      5 H         -17.2910    3.0300   -2.0470 H       1  UNL1        0.1490
      6 H         -18.2050    5.2600   -2.6300 H       1  UNL1        0.0465
      7 H         -16.0680    5.1080   -1.3390 H       1  UNL1        0.0322
      8 H         -12.2740    5.0760   -3.9410 H       1  UNL1        0.0307
      9 H         -11.5780    3.1060   -5.2160 H       1  UNL1        0.0268
     10 H         -12.2460    2.9640   -2.6800 H       1  UNL1        0.0274
     11 H         -14.7360    2.3750   -3.2450 H       1  UNL1        0.0427
     12 H         -15.5020    1.5520   -5.4120 H       1  UNL1        0.0391
     13 H         -13.2440    0.2550   -1.6190 H       1  UNL1        0.0914
     14 H         -15.1790   -0.1040   -0.8060 H       1  UNL1        0.2125
     15 H         -12.4560    1.0120    0.4470 H       1  UNL1        0.0558
     16 H         -12.7790    2.5570    2.3850 H       1  UNL1        0.0252
     17 H         -17.7280   -3.3590   -3.2030 H       1  UNL1        0.2922
     18 H         -13.8970    3.5400    1.4090 H       1  UNL1        0.0252
     19 H         -17.3120    5.1910   -4.1480 H       1  UNL1        0.0465
     20 H         -16.2400    6.5780   -2.2880 H       1  UNL1        0.0322
     21 H         -12.8700    5.1080   -5.5900 H       1  UNL1        0.0307
     22 H         -13.2360    2.6470   -5.5560 H       1  UNL1        0.0268
     23 H         -11.8160    1.5310   -3.5900 H       1  UNL1        0.0274
     24 H         -15.3270   -0.1110   -5.8210 H       1  UNL1        0.0391
     25 H         -14.1770    1.1080    0.9110 H       1  UNL1        0.0558
     26 H         -12.2000    3.4460    0.9550 H       1  UNL1        0.0252
     27 C         -18.7420    0.8070   -2.9630 C.ar    1  UNL1        0.1328
     28 C         -18.9830   -0.5230   -2.6430 C.ar    1  UNL1        0.0235
     29 C         -18.1150   -1.4970   -3.1110 C.ar    1  UNL1        0.1389
     30 C         -16.9950   -1.1590   -3.8870 C.ar    1  UNL1        0.0868
     31 C         -16.7150    0.1860   -4.2060 C.ar    1  UNL1       -0.0028
     32 C         -17.6190    1.1690   -3.7330 C.ar    1  UNL1        0.0832
     33 C         -17.4350    2.6020   -4.0650 C.2     1  UNL1        0.2479
     34 O         -17.4160    2.9640   -5.2320 O.2     1  UNL1       -0.2701
     35 N         -17.3480    3.4380   -2.9760 N.am    1  UNL1       -0.3109
     36 C         -17.2860    4.8870   -3.0970 C.3     1  UNL1        0.0153
     37 C         -16.0830    5.4950   -2.3660 C.3     1  UNL1       -0.0191
     38 C         -14.7090    5.2860   -2.9470 C.2     1  UNL1       -0.0865
     39 C         -14.3950    4.7980   -4.1580 C.2     1  UNL1       -0.0879
     40 C         -12.9830    4.5960   -4.6270 C.3     1  UNL1       -0.0347
     41 C         -12.5960    3.1220   -4.8040 C.3     1  UNL1       -0.0488
     42 C         -12.5820    2.3120   -3.4950 C.3     1  UNL1       -0.0385
     43 C         -13.9310    1.6480   -3.1490 C.3     1  UNL1        0.0685
     44 C         -14.1990    0.4970   -4.1080 C.2     1  UNL1        0.1455
     45 C         -15.4560    0.5580   -4.9620 C.3     1  UNL1        0.0338
     46 O         -13.4140   -0.4520   -4.1900 O.2     1  UNL1       -0.2966
     47 C         -13.9570    1.0830   -1.7230 C.3     1  UNL1        0.1656
     48 O         -15.2740    0.6200   -1.4480 O.3     1  UNL1       -0.3663
     49 O         -13.6530    2.1350   -0.8120 O.3     1  UNL1       -0.3511
     50 C         -13.3330    1.6660    0.4930 C.3     1  UNL1        0.0478
     51 C         -13.0330    2.8680    1.3680 C.3     1  UNL1       -0.0415
     52 CL        -15.9880   -2.4610   -4.4340 Cl      1  UNL1       -0.0794
     53 O         -18.4030   -2.7950   -2.7800 O.3     1  UNL1       -0.5052
     54 O         -19.6640    1.7060   -2.4940 O.3     1  UNL1       -0.5059
@<TRIPOS>BOND
     1    24    45    1
     2    21    40    1
     3    22    41    1
     4    12    45    1
     5    34    33    2
     6     9    41    1
     7    45    31    1
     8    45    44    1
     9     2    39    1
    10    41    40    1
    11    41    42    1
    12    40    39    1
    13    40     8    1
    14    52    30    1
    15    31    30   ar
    16    31    32   ar
    17    46    44    2
    18    39    38    2
    19    19    36    1
    20    44    43    1
    21    33    32    1
    22    33    35   am
    23    30    29   ar
    24    32    27   ar
    25    23    42    1
    26    42    43    1
    27    42    10    1
    28    11    43    1
    29    17    53    1
    30    43    47    1
    31    29    53    1
    32    29    28   ar
    33    36    35    1
    34    36     6    1
    35    36    37    1
    36    35     5    1
    37    27    28   ar
    38    27    54    1
    39    38    37    1
    40    38     1    1
    41     3    54    1
    42    28     4    1
    43    37    20    1
    44    37     7    1
    45    47    13    1
    46    47    48    1
    47    47    49    1
    48    48    14    1
    49    49    50    1
    50    15    50    1
    51    50    25    1
    52    50    51    1
    53    26    51    1
    54    51    18    1
    55    51    16    1
