@<TRIPOS>MOLECULE
6.32532
 54 55 0 0 0
SMALL
GASTEIGER

@<TRIPOS>ATOM
      1 H         -14.5540    6.0540   -4.2570 H       1  UNL1        0.0569
      2 H         -13.5100    6.2410   -7.1380 H       1  UNL1        0.0569
      3 H         -20.7340    5.6750   -4.0340 H       1  UNL1        0.2922
      4 H         -21.0920    4.5290   -0.7450 H       1  UNL1        0.0691
      5 H         -16.6710    5.3040   -4.0150 H       1  UNL1        0.1490
      6 H         -17.8240    6.7050   -6.3330 H       1  UNL1        0.0465
      7 H         -16.0060    7.8410   -5.0560 H       1  UNL1        0.0322
      8 H         -11.5530    5.7260   -5.3100 H       1  UNL1        0.0307
      9 H         -11.7720    3.5420   -4.2570 H       1  UNL1        0.0268
     10 H         -13.1840    2.3060   -5.6760 H       1  UNL1        0.0274
     11 H         -13.6380    2.2040   -2.9710 H       1  UNL1        0.0427
     12 H         -17.1320    2.7220   -4.7530 H       1  UNL1        0.0391
     13 H         -13.6150    0.2990   -4.4670 H       1  UNL1        0.0914
     14 H         -15.2000   -0.1340   -5.8120 H       1  UNL1        0.2125
     15 H         -14.1060   -1.7100   -3.3810 H       1  UNL1        0.0558
     16 H         -15.7270   -3.0580   -2.0560 H       1  UNL1        0.0252
     17 H         -19.0190    2.0720    0.6980 H       1  UNL1        0.2922
     18 H         -16.7520   -1.6210   -1.8400 H       1  UNL1        0.0252
     19 H         -16.7470    5.3620   -6.7280 H       1  UNL1        0.0465
     20 H         -15.5570    7.5680   -6.7380 H       1  UNL1        0.0322
     21 H         -12.0010    4.5310   -6.5190 H       1  UNL1        0.0307
     22 H         -13.0440    4.5700   -3.6410 H       1  UNL1        0.0268
     23 H         -14.5170    3.4450   -5.5980 H       1  UNL1        0.0274
     24 H         -17.0790    1.4310   -3.5830 H       1  UNL1        0.0391
     25 H         -15.7340   -1.6330   -4.1090 H       1  UNL1        0.0558
     26 H         -15.1550   -1.6670   -1.1030 H       1  UNL1        0.0252
     27 C         -19.9860    4.6580   -2.5880 C.ar    1  UNL1        0.1328
     28 C         -20.2480    4.1590   -1.3190 C.ar    1  UNL1        0.0235
     29 C         -19.4130    3.1820   -0.7960 C.ar    1  UNL1        0.1389
     30 C         -18.3390    2.6720   -1.5420 C.ar    1  UNL1        0.0868
     31 C         -18.0690    3.1510   -2.8420 C.ar    1  UNL1       -0.0028
     32 C         -18.8780    4.2030   -3.3280 C.ar    1  UNL1        0.0832
     33 C         -18.6130    4.8970   -4.6090 C.2     1  UNL1        0.2479
     34 O         -19.5370    5.0540   -5.4000 O.2     1  UNL1       -0.2701
     35 N         -17.3530    5.4220   -4.7610 N.am    1  UNL1       -0.3109
     36 C         -16.9660    6.1260   -5.9730 C.3     1  UNL1        0.0153
     37 C         -15.7650    7.0610   -5.7880 C.3     1  UNL1       -0.0191
     38 C         -14.5490    6.3190   -5.3120 C.2     1  UNL1       -0.0865
     39 C         -13.5190    5.9480   -6.0890 C.2     1  UNL1       -0.0879
     40 C         -12.3720    5.0770   -5.6430 C.3     1  UNL1       -0.0347
     41 C         -12.7000    4.0540   -4.5430 C.3     1  UNL1       -0.0488
     42 C         -13.7160    2.9920   -5.0040 C.3     1  UNL1       -0.0385
     43 C         -14.3340    2.2160   -3.8220 C.3     1  UNL1        0.0685
     44 C         -15.5730    2.9740   -3.3180 C.2     1  UNL1        0.1455
     45 C         -16.9760    2.5130   -3.6900 C.3     1  UNL1        0.0338
     46 O         -15.4230    4.0520   -2.7220 O.2     1  UNL1       -0.2966
     47 C         -14.5800    0.7500   -4.2030 C.3     1  UNL1        0.1656
     48 O         -15.4350    0.6770   -5.3310 O.3     1  UNL1       -0.3663
     49 O         -15.1270    0.0660   -3.0860 O.3     1  UNL1       -0.3511
     50 C         -15.1310   -1.3500   -3.2400 C.3     1  UNL1        0.0478
     51 C         -15.7240   -1.9670   -1.9890 C.3     1  UNL1       -0.0415
     52 CL        -17.3710    1.4340   -0.8080 Cl      1  UNL1       -0.0794
     53 O         -19.6990    2.7310    0.4650 O.3     1  UNL1       -0.5052
     54 O         -20.8590    5.6020   -3.0620 O.3     1  UNL1       -0.5059
@<TRIPOS>BOND
     1     2    39    1
     2    20    37    1
     3    19    36    1
     4    21    40    1
     5     6    36    1
     6    39    40    1
     7    39    38    2
     8    36    37    1
     9    36    35    1
    10    14    48    1
    11    37    38    1
    12    37     7    1
    13    10    42    1
    14    40     8    1
    15    40    41    1
    16    23    42    1
    17    34    33    2
    18    48    47    1
    19    38     1    1
    20    42    41    1
    21    42    43    1
    22    35    33   am
    23    35     5    1
    24    12    45    1
    25    33    32    1
    26    41     9    1
    27    41    22    1
    28    13    47    1
    29    47    43    1
    30    47    49    1
    31    25    50    1
    32     3    54    1
    33    43    44    1
    34    43    11    1
    35    45    24    1
    36    45    44    1
    37    45    31    1
    38    15    50    1
    39    32    31   ar
    40    32    27   ar
    41    44    46    2
    42    50    49    1
    43    50    51    1
    44    54    27    1
    45    31    30   ar
    46    27    28   ar
    47    16    51    1
    48    51    18    1
    49    51    26    1
    50    30    52    1
    51    30    29   ar
    52    28    29   ar
    53    28     4    1
    54    29    53    1
    55    53    17    1
