@<TRIPOS>MOLECULE
25.23379
 54 55 0 0 0
SMALL
GASTEIGER

@<TRIPOS>ATOM
      1 H         -18.1350    0.4110   -9.6660 H       1  UNL1        0.0569
      2 H         -15.1250   -0.0910  -10.0060 H       1  UNL1        0.0569
      3 H         -17.0940   -0.4540   -4.1770 H       1  UNL1        0.2922
      4 H         -16.2920   -3.5990   -2.9090 H       1  UNL1        0.0691
      5 H         -16.4320   -0.6460   -6.5100 H       1  UNL1        0.1490
      6 H         -17.2470    1.7730   -6.2540 H       1  UNL1        0.0465
      7 H         -15.6270    1.2150   -8.0430 H       1  UNL1        0.0322
      8 H         -15.7280   -1.8440  -11.4730 H       1  UNL1        0.0307
      9 H         -18.1040   -1.9440  -12.5130 H       1  UNL1        0.0268
     10 H         -17.1920   -3.7680  -11.2580 H       1  UNL1        0.0274
     11 H         -16.9870   -2.4240   -8.9310 H       1  UNL1        0.0427
     12 H         -20.5090   -3.0400   -6.9920 H       1  UNL1        0.0391
     13 H         -17.0470   -4.6080   -7.7290 H       1  UNL1        0.0914
     14 H         -15.3480   -5.2490   -8.7980 H       1  UNL1        0.2125
     15 H         -17.2480   -6.9780   -7.9630 H       1  UNL1        0.0558
     16 H         -18.3030   -8.8960   -9.1560 H       1  UNL1        0.0252
     17 H         -17.8970   -6.5730   -3.8780 H       1  UNL1        0.2922
     18 H         -18.9260   -7.7830  -10.3980 H       1  UNL1        0.0252
     19 H         -18.6020    1.2690   -7.2710 H       1  UNL1        0.0465
     20 H         -16.8200    2.3940   -8.5960 H       1  UNL1        0.0322
     21 H         -16.3990   -0.4500  -12.2920 H       1  UNL1        0.0307
     22 H         -18.6850   -1.1080  -11.1060 H       1  UNL1        0.0268
     23 H         -18.9120   -3.5870  -11.0000 H       1  UNL1        0.0274
     24 H         -19.8070   -4.5000   -7.6250 H       1  UNL1        0.0391
     25 H         -16.6600   -7.0820   -9.6420 H       1  UNL1        0.0558
     26 H         -19.5280   -7.6710   -8.7490 H       1  UNL1        0.0252
     27 C         -17.2260   -2.3670   -4.4080 C.ar    1  UNL1        0.1328
     28 C         -16.9500   -3.5700   -3.7730 C.ar    1  UNL1        0.0235
     29 C         -17.5760   -4.7230   -4.2180 C.ar    1  UNL1        0.1389
     30 C         -18.4390   -4.7000   -5.3250 C.ar    1  UNL1        0.0868
     31 C         -18.6670   -3.5050   -6.0450 C.ar    1  UNL1       -0.0028
     32 C         -18.0800   -2.3250   -5.5260 C.ar    1  UNL1        0.0832
     33 C         -18.4330   -1.0000   -6.0740 C.2     1  UNL1        0.2479
     34 O         -19.5950   -0.6280   -6.0290 O.2     1  UNL1       -0.2701
     35 N         -17.3690   -0.2580   -6.5280 N.am    1  UNL1       -0.3109
     36 C         -17.5440    1.0850   -7.0530 C.3     1  UNL1        0.0153
     37 C         -16.6870    1.3490   -8.2950 C.3     1  UNL1       -0.0191
     38 C         -17.0690    0.4700   -9.4540 C.2     1  UNL1       -0.0865
     39 C         -16.1880   -0.1980  -10.2160 C.2     1  UNL1       -0.0879
     40 C         -16.5090   -1.0760  -11.3970 C.3     1  UNL1       -0.0347
     41 C         -17.8820   -1.7620  -11.4520 C.3     1  UNL1       -0.0488
     42 C         -17.9390   -3.1350  -10.7620 C.3     1  UNL1       -0.0385
     43 C         -17.7320   -3.1700   -9.2220 C.3     1  UNL1        0.0685
     44 C         -19.0390   -2.7680   -8.5170 C.2     1  UNL1        0.1455
     45 C         -19.5520   -3.4940   -7.2810 C.3     1  UNL1        0.0338
     46 O         -19.7120   -1.8330   -8.9690 O.2     1  UNL1       -0.2966
     47 C         -17.1600   -4.5380   -8.8110 C.3     1  UNL1        0.1656
     48 O         -15.8560   -4.6550   -9.3720 O.3     1  UNL1       -0.3663
     49 O         -18.0200   -5.5680   -9.2770 O.3     1  UNL1       -0.3511
     50 C         -17.5350   -6.8810   -9.0150 C.3     1  UNL1        0.0478
     51 C         -18.6330   -7.8710   -9.3460 C.3     1  UNL1       -0.0415
     52 CL        -19.2080   -6.1960   -5.7500 Cl      1  UNL1       -0.0794
     53 O         -17.3160   -5.8740   -3.5220 O.3     1  UNL1       -0.5052
     54 O         -16.6380   -1.2570   -3.8610 O.3     1  UNL1       -0.5059
@<TRIPOS>BOND
     1     9    41    1
     2    21    40    1
     3     8    40    1
     4    41    40    1
     5    41    22    1
     6    41    42    1
     7    40    39    1
     8    10    42    1
     9    23    42    1
    10    42    43    1
    11    18    51    1
    12    39     2    1
    13    39    38    2
    14     1    38    1
    15    25    50    1
    16    38    37    1
    17    48    47    1
    18    48    14    1
    19    51    16    1
    20    51    50    1
    21    51    26    1
    22    49    50    1
    23    49    47    1
    24    43    11    1
    25    43    47    1
    26    43    44    1
    27    50    15    1
    28    46    44    2
    29    47    13    1
    30    20    37    1
    31    44    45    1
    32    37     7    1
    33    37    36    1
    34    24    45    1
    35    45    12    1
    36    45    31    1
    37    19    36    1
    38    36    35    1
    39    36     6    1
    40    35     5    1
    41    35    33   am
    42    33    34    2
    43    33    32    1
    44    31    32   ar
    45    31    30   ar
    46    52    30    1
    47    32    27   ar
    48    30    29   ar
    49    27    54    1
    50    27    28   ar
    51    29    28   ar
    52    29    53    1
    53     3    54    1
    54    17    53    1
    55    28     4    1
