@<TRIPOS>MOLECULE
11.89352
 54 55 0 0 0
SMALL
GASTEIGER

@<TRIPOS>ATOM
      1 H         -12.2080   -1.6950   -4.7280 H       1  UNL1        0.0569
      2 H         -12.4930   -4.7320   -4.4240 H       1  UNL1        0.0569
      3 H         -17.6690    0.2630   -7.4370 H       1  UNL1        0.2922
      4 H         -19.2600    2.2390   -5.0230 H       1  UNL1        0.0691
      5 H         -14.6840   -0.8950   -4.9080 H       1  UNL1        0.1490
      6 H         -13.3210   -0.8100   -6.8790 H       1  UNL1        0.0465
      7 H         -12.4270   -3.1080   -7.0710 H       1  UNL1        0.0322
      8 H         -10.5470   -3.4440   -2.9240 H       1  UNL1        0.0307
      9 H         -12.2380   -1.4870   -2.4910 H       1  UNL1        0.0268
     10 H         -13.5330   -1.7020   -0.4750 H       1  UNL1        0.0274
     11 H         -15.4630   -2.9250   -0.8300 H       1  UNL1        0.0427
     12 H         -16.5070   -2.8970   -4.1300 H       1  UNL1        0.0391
     13 H         -14.5310   -4.4980   -3.2470 H       1  UNL1        0.0914
     14 H         -16.3230   -5.6030   -2.7470 H       1  UNL1        0.2125
     15 H         -13.5000   -6.5690   -2.9230 H       1  UNL1        0.0558
     16 H         -12.8900   -8.4370   -1.3850 H       1  UNL1        0.0252
     17 H         -19.3190    1.4630   -1.5850 H       1  UNL1        0.2922
     18 H         -13.4780   -7.4860   -0.0010 H       1  UNL1        0.0252
     19 H         -14.4460   -1.8670   -7.7330 H       1  UNL1        0.0465
     20 H         -13.8600   -3.7670   -6.2660 H       1  UNL1        0.0322
     21 H         -11.7380   -4.5010   -2.2130 H       1  UNL1        0.0307
     22 H         -11.3180   -2.1710   -1.1940 H       1  UNL1        0.0268
     23 H         -13.1250   -3.3780   -0.2670 H       1  UNL1        0.0274
     24 H         -17.2700   -2.6630   -2.5770 H       1  UNL1        0.0391
     25 H         -14.9220   -7.1320   -2.0060 H       1  UNL1        0.0558
     26 H         -12.0730   -6.9310   -0.9030 H       1  UNL1        0.0252
     27 C         -17.9570    0.6150   -5.5700 C.ar    1  UNL1        0.1328
     28 C         -18.6960    1.3780   -4.6760 C.ar    1  UNL1        0.0235
     29 C         -18.6980    1.0290   -3.3340 C.ar    1  UNL1        0.1389
     30 C         -17.9980   -0.0990   -2.8800 C.ar    1  UNL1        0.0868
     31 C         -17.2650   -0.9030   -3.7780 C.ar    1  UNL1       -0.0028
     32 C         -17.2020   -0.4880   -5.1280 C.ar    1  UNL1        0.0832
     33 C         -16.3330   -1.1410   -6.1380 C.2     1  UNL1        0.2479
     34 O         -16.8060   -1.4150   -7.2350 O.2     1  UNL1       -0.2701
     35 N         -15.0070   -1.2680   -5.8020 N.am    1  UNL1       -0.3109
     36 C         -13.9890   -1.6700   -6.7580 C.3     1  UNL1        0.0153
     37 C         -13.1890   -2.9000   -6.3110 C.3     1  UNL1       -0.0191
     38 C         -12.5030   -2.7110   -4.9840 C.2     1  UNL1       -0.0865
     39 C         -12.2540   -3.7120   -4.1260 C.2     1  UNL1       -0.0879
     40 C         -11.6270   -3.5630   -2.7660 C.3     1  UNL1       -0.0347
     41 C         -12.1270   -2.4020   -1.9010 C.3     1  UNL1       -0.0488
     42 C         -13.3780   -2.6360   -1.0350 C.3     1  UNL1       -0.0385
     43 C         -14.7450   -3.0090   -1.6610 C.3     1  UNL1        0.0685
     44 C         -15.2340   -1.9740   -2.6810 C.2     1  UNL1        0.1455
     45 C         -16.6070   -2.1850   -3.3030 C.3     1  UNL1        0.0338
     46 O         -14.5620   -0.9870   -2.9990 O.2     1  UNL1       -0.2966
     47 C         -14.8590   -4.4450   -2.2070 C.3     1  UNL1        0.1656
     48 O         -16.2300   -4.8280   -2.1690 O.3     1  UNL1       -0.3663
     49 O         -14.1160   -5.3290   -1.3810 O.3     1  UNL1       -0.3511
     50 C         -13.9510   -6.6330   -1.9280 C.3     1  UNL1        0.0478
     51 C         -13.0460   -7.4240   -1.0050 C.3     1  UNL1       -0.0415
     52 CL        -18.0680   -0.4660   -1.1850 Cl      1  UNL1       -0.0794
     53 O         -19.4250    1.8230   -2.4860 O.3     1  UNL1       -0.5052
     54 O         -18.0090    1.0010   -6.8850 O.3     1  UNL1       -0.5059
@<TRIPOS>BOND
     1    19    36    1
     2     3    54    1
     3    34    33    2
     4     7    37    1
     5    54    27    1
     6     6    36    1
     7    36    37    1
     8    36    35    1
     9    37    20    1
    10    37    38    1
    11    33    35   am
    12    33    32    1
    13    35     5    1
    14    27    32   ar
    15    27    28   ar
    16    32    31   ar
    17     4    28    1
    18    38     1    1
    19    38    39    2
    20    28    29   ar
    21     2    39    1
    22    12    45    1
    23    39    40    1
    24    31    45    1
    25    31    30   ar
    26    29    30   ar
    27    29    53    1
    28    45    44    1
    29    45    24    1
    30    13    47    1
    31    46    44    2
    32     8    40    1
    33    15    50    1
    34    30    52    1
    35    40    21    1
    36    40    41    1
    37    14    48    1
    38    44    43    1
    39     9    41    1
    40    53    17    1
    41    47    48    1
    42    47    43    1
    43    47    49    1
    44    25    50    1
    45    50    49    1
    46    50    51    1
    47    41    22    1
    48    41    42    1
    49    43    42    1
    50    43    11    1
    51    16    51    1
    52    42    10    1
    53    42    23    1
    54    51    26    1
    55    51    18    1
