@<TRIPOS>MOLECULE
5.74713
 54 55 0 0 0
SMALL
GASTEIGER

@<TRIPOS>ATOM
      1 H         -14.1030    0.5790   -0.3200 H       1  UNL1        0.0569
      2 H         -16.0190   -1.6060   -1.3160 H       1  UNL1        0.0569
      3 H         -20.2290    3.0980   -2.0080 H       1  UNL1        0.2922
      4 H         -22.8670    3.1680    0.2800 H       1  UNL1        0.0691
      5 H         -17.4550    1.7330    0.6730 H       1  UNL1        0.1490
      6 H         -15.6280    2.6580   -0.3360 H       1  UNL1        0.0465
      7 H         -14.8920    1.5010   -2.5240 H       1  UNL1        0.0322
      8 H         -13.4550   -1.7730    0.3060 H       1  UNL1        0.0307
      9 H         -15.1480   -0.7240    1.8880 H       1  UNL1        0.0268
     10 H         -16.3960   -3.4470    2.1590 H       1  UNL1        0.0274
     11 H         -16.7160   -1.2110    3.5940 H       1  UNL1        0.0427
     12 H         -18.4150   -0.7250    0.0810 H       1  UNL1        0.0391
     13 H         -19.1120   -1.8600    4.1140 H       1  UNL1        0.0914
     14 H         -18.2910   -3.4560    5.2430 H       1  UNL1        0.2125
     15 H         -20.7630   -3.5270    3.8550 H       1  UNL1        0.0558
     16 H         -21.6840   -5.4280    2.5250 H       1  UNL1        0.0252
     17 H         -23.2660    0.8250    2.8780 H       1  UNL1        0.2922
     18 H         -20.2500   -5.3830    1.4710 H       1  UNL1        0.0252
     19 H         -16.6020    2.9980   -1.7710 H       1  UNL1        0.0465
     20 H         -16.3620    0.5310   -2.4490 H       1  UNL1        0.0322
     21 H         -14.5950   -3.0710   -0.0180 H       1  UNL1        0.0307
     22 H         -14.4690   -2.2510    2.4170 H       1  UNL1        0.0268
     23 H         -17.0380   -2.4770    0.8510 H       1  UNL1        0.0274
     24 H         -19.5450   -1.5700    1.0870 H       1  UNL1        0.0391
     25 H         -19.6290   -4.9030    3.8420 H       1  UNL1        0.0558
     26 H         -21.3660   -4.0230    1.4790 H       1  UNL1        0.0252
     27 C         -20.9490    2.4300   -0.3570 C.ar    1  UNL1        0.1328
     28 C         -22.0820    2.4360    0.4430 C.ar    1  UNL1        0.0235
     29 C         -22.1950    1.4910    1.4490 C.ar    1  UNL1        0.1389
     30 C         -21.1990    0.5210    1.6460 C.ar    1  UNL1        0.0868
     31 C         -20.0400    0.4890    0.8390 C.ar    1  UNL1       -0.0028
     32 C         -19.9090    1.5010   -0.1410 C.ar    1  UNL1        0.0832
     33 C         -18.7080    1.6730   -0.9900 C.2     1  UNL1        0.2479
     34 O         -18.8630    1.8350   -2.1970 O.2     1  UNL1       -0.2701
     35 N         -17.5010    1.7910   -0.3430 N.am    1  UNL1       -0.3109
     36 C         -16.3110    2.2100   -1.0660 C.3     1  UNL1        0.0153
     37 C         -15.6310    1.0720   -1.8370 C.3     1  UNL1       -0.0191
     38 C         -14.9060    0.1390   -0.9100 C.2     1  UNL1       -0.0865
     39 C         -15.2120   -1.1560   -0.7420 C.2     1  UNL1       -0.0879
     40 C         -14.5240   -2.0190    0.2780 C.3     1  UNL1       -0.0347
     41 C         -15.1280   -1.7990    1.6660 C.3     1  UNL1       -0.0488
     42 C         -16.5280   -2.4120    1.8180 C.3     1  UNL1       -0.0385
     43 C         -17.3850   -1.6210    2.8230 C.3     1  UNL1        0.0685
     44 C         -18.0570   -0.4130    2.1610 C.2     1  UNL1        0.1455
     45 C         -19.0130   -0.6220    0.9930 C.3     1  UNL1        0.0338
     46 O         -17.7610    0.7340    2.5210 O.2     1  UNL1       -0.2966
     47 C         -18.4090   -2.4930    3.5620 C.3     1  UNL1        0.1656
     48 O         -17.6960   -3.2980    4.4930 O.3     1  UNL1       -0.3663
     49 O         -19.1000   -3.3130    2.6300 O.3     1  UNL1       -0.3511
     50 C         -20.1010   -4.1310    3.2260 C.3     1  UNL1        0.0478
     51 C         -20.9010   -4.7830    2.1160 C.3     1  UNL1       -0.0415
     52 CL        -21.4650   -0.6370    2.9060 Cl      1  UNL1       -0.0794
     53 O         -23.3280    1.5390    2.2180 O.3     1  UNL1       -0.5052
     54 O         -20.9140    3.3690   -1.3570 O.3     1  UNL1       -0.5059
@<TRIPOS>BOND
     1     7    37    1
     2    20    37    1
     3    34    33    2
     4     3    54    1
     5    37    36    1
     6    37    38    1
     7    19    36    1
     8    54    27    1
     9     2    39    1
    10    36    35    1
    11    36     6    1
    12    33    35   am
    13    33    32    1
    14    38    39    2
    15    38     1    1
    16    39    40    1
    17    27    32   ar
    18    27    28   ar
    19    35     5    1
    20    32    31   ar
    21    21    40    1
    22    12    45    1
    23    40     8    1
    24    40    41    1
    25     4    28    1
    26    28    29   ar
    27    31    45    1
    28    31    30   ar
    29    23    42    1
    30    45    24    1
    31    45    44    1
    32    29    30   ar
    33    29    53    1
    34    18    51    1
    35    26    51    1
    36    30    52    1
    37    41    42    1
    38    41     9    1
    39    41    22    1
    40    42    10    1
    41    42    43    1
    42    51    16    1
    43    51    50    1
    44    44    46    2
    45    44    43    1
    46    53    17    1
    47    49    50    1
    48    49    47    1
    49    43    47    1
    50    43    11    1
    51    50    25    1
    52    50    15    1
    53    47    13    1
    54    47    48    1
    55    48    14    1
