@<TRIPOS>MOLECULE
20.09618
 54 55 0 0 0
SMALL
GASTEIGER

@<TRIPOS>ATOM
      1 H         -13.9910   -2.3970   -6.6290 H       1  UNL1        0.0569
      2 H         -14.9280   -4.0080   -4.1880 H       1  UNL1        0.0569
      3 H         -13.0720   -6.5290  -11.1130 H       1  UNL1        0.2922
      4 H         -14.3870   -9.6790  -10.4680 H       1  UNL1        0.0691
      5 H         -12.5990   -3.8440   -8.5600 H       1  UNL1        0.1490
      6 H         -11.7970   -5.6440   -6.9780 H       1  UNL1        0.0465
      7 H         -11.8600   -3.4090   -6.0540 H       1  UNL1        0.0322
      8 H         -16.0490   -1.5250   -5.6830 H       1  UNL1        0.0307
      9 H         -18.2240   -2.8060   -4.5360 H       1  UNL1        0.0268
     10 H         -18.2970   -1.7540   -6.7070 H       1  UNL1        0.0274
     11 H         -16.2190   -2.9430   -7.7420 H       1  UNL1        0.0427
     12 H         -15.3600   -4.8480   -7.2120 H       1  UNL1        0.0391
     13 H         -18.7320   -3.0480   -9.4750 H       1  UNL1        0.0914
     14 H         -17.2840   -3.1370  -11.0150 H       1  UNL1        0.2125
     15 H         -19.4460   -0.9740  -10.2900 H       1  UNL1        0.0558
     16 H         -18.9420    1.4380  -10.7040 H       1  UNL1        0.0252
     17 H         -17.0780  -10.2380   -8.2660 H       1  UNL1        0.2922
     18 H         -17.4640    1.2920   -9.7220 H       1  UNL1        0.0252
     19 H         -13.4850   -5.9480   -6.6140 H       1  UNL1        0.0465
     20 H         -12.5730   -4.4940   -4.8730 H       1  UNL1        0.0322
     21 H         -16.2540   -1.9160   -3.9880 H       1  UNL1        0.0307
     22 H         -17.3640   -4.2020   -5.1350 H       1  UNL1        0.0268
     23 H         -19.0780   -3.3250   -6.7070 H       1  UNL1        0.0274
     24 H         -16.4700   -5.8870   -6.4030 H       1  UNL1        0.0391
     25 H         -17.8520   -0.7760  -11.0680 H       1  UNL1        0.0558
     26 H         -19.0370    1.1010   -8.9580 H       1  UNL1        0.0252
     27 C         -14.1170   -7.6120   -9.9260 C.ar    1  UNL1        0.1328
     28 C         -14.7170   -8.8610   -9.8330 C.ar    1  UNL1        0.0235
     29 C         -15.7600   -9.0410   -8.9380 C.ar    1  UNL1        0.1389
     30 C         -16.2180   -7.9820   -8.1400 C.ar    1  UNL1        0.0868
     31 C         -15.6120   -6.7080   -8.2090 C.ar    1  UNL1       -0.0028
     32 C         -14.5180   -6.5470   -9.0940 C.ar    1  UNL1        0.0832
     33 C         -13.7760   -5.2760   -9.2750 C.2     1  UNL1        0.2479
     34 O         -13.6860   -4.8220  -10.4150 O.2     1  UNL1       -0.2701
     35 N         -13.0900   -4.6760   -8.2510 N.am    1  UNL1       -0.3109
     36 C         -12.7820   -5.1680   -6.9140 C.3     1  UNL1        0.0153
     37 C         -12.7320   -4.0460   -5.8610 C.3     1  UNL1       -0.0191
     38 C         -13.9500   -3.1570   -5.8490 C.2     1  UNL1       -0.0865
     39 C         -14.9630   -3.2540   -4.9720 C.2     1  UNL1       -0.0879
     40 C         -16.1780   -2.3630   -4.9870 C.3     1  UNL1       -0.0347
     41 C         -17.4830   -3.1230   -5.2810 C.3     1  UNL1       -0.0488
     42 C         -18.0980   -2.8320   -6.6620 C.3     1  UNL1       -0.0385
     43 C         -17.2560   -3.2660   -7.8740 C.3     1  UNL1        0.0685
     44 C         -17.2880   -4.7850   -8.0390 C.2     1  UNL1        0.1455
     45 C         -16.1540   -5.5560   -7.3980 C.3     1  UNL1        0.0338
     46 O         -18.2270   -5.3560   -8.5970 O.2     1  UNL1       -0.2966
     47 C         -17.7480   -2.6520   -9.1940 C.3     1  UNL1        0.1656
     48 O         -16.7910   -2.9720  -10.1950 O.3     1  UNL1       -0.3663
     49 O         -17.8130   -1.2360   -9.0460 O.3     1  UNL1       -0.3511
     50 C         -18.4290   -0.5910  -10.1560 C.3     1  UNL1        0.0478
     51 C         -18.4740    0.8980   -9.8750 C.3     1  UNL1       -0.0415
     52 CL        -17.5330   -8.3080   -7.0540 Cl      1  UNL1       -0.0794
     53 O         -16.3250  -10.2870   -8.8850 O.3     1  UNL1       -0.5052
     54 O         -13.1380   -7.4800  -10.8770 O.3     1  UNL1       -0.5059
@<TRIPOS>BOND
     1     3    54    1
     2    25    50    1
     3    14    48    1
     4    54    27    1
     5    16    51    1
     6     4    28    1
     7    34    33    2
     8    15    50    1
     9    48    47    1
    10    50    51    1
    11    50    49    1
    12    27    28   ar
    13    27    32   ar
    14    51    18    1
    15    51    26    1
    16    28    29   ar
    17    13    47    1
    18    33    32    1
    19    33    35   am
    20    47    49    1
    21    47    43    1
    22    32    31   ar
    23    29    53    1
    24    29    30   ar
    25    53    17    1
    26    46    44    2
    27     5    35    1
    28    35    36    1
    29    31    30   ar
    30    31    45    1
    31    30    52    1
    32    44    43    1
    33    44    45    1
    34    43    11    1
    35    43    42    1
    36    45    12    1
    37    45    24    1
    38     6    36    1
    39    36    19    1
    40    36    37    1
    41    23    42    1
    42    10    42    1
    43    42    41    1
    44     1    38    1
    45     7    37    1
    46    37    38    1
    47    37    20    1
    48    38    39    2
    49     8    40    1
    50    41    22    1
    51    41    40    1
    52    41     9    1
    53    40    39    1
    54    40    21    1
    55    39     2    1
