@<TRIPOS>MOLECULE
25.15258
 54 55 0 0 0
SMALL
GASTEIGER

@<TRIPOS>ATOM
      1 H         -12.6900   -0.9090   -7.4670 H       1  UNL1        0.0569
      2 H         -14.0160   -3.6600   -7.1850 H       1  UNL1        0.0569
      3 H         -11.5820   -5.6060   -4.0790 H       1  UNL1        0.2922
      4 H         -14.8530   -6.3270   -3.0990 H       1  UNL1        0.0691
      5 H         -12.2080   -4.3080   -5.8190 H       1  UNL1        0.1490
      6 H          -9.8490   -3.6470   -6.7110 H       1  UNL1        0.0465
      7 H         -11.7890   -3.7300   -8.2070 H       1  UNL1        0.0322
      8 H         -15.4410   -2.1900   -5.6970 H       1  UNL1        0.0307
      9 H         -16.5930   -0.2760   -6.7730 H       1  UNL1        0.0268
     10 H         -15.2110    1.5440   -6.3860 H       1  UNL1        0.0274
     11 H         -15.5250   -0.2770   -4.3190 H       1  UNL1        0.0427
     12 H         -12.2960   -1.0510   -2.5230 H       1  UNL1        0.0391
     13 H         -13.9360    2.3610   -4.2010 H       1  UNL1        0.0914
     14 H         -14.4630    2.3740   -2.1140 H       1  UNL1        0.2125
     15 H         -15.2820    4.2460   -4.4760 H       1  UNL1        0.0558
     16 H         -17.5240    5.3110   -4.1820 H       1  UNL1        0.0252
     17 H         -17.1010   -3.9590   -1.7900 H       1  UNL1        0.2922
     18 H         -18.2430    3.7080   -3.8990 H       1  UNL1        0.0252
     19 H         -10.3200   -2.0460   -6.0930 H       1  UNL1        0.0465
     20 H         -10.9380   -2.2210   -8.4990 H       1  UNL1        0.0322
     21 H         -16.0590   -2.4770   -7.3020 H       1  UNL1        0.0307
     22 H         -15.3920   -0.2260   -8.0430 H       1  UNL1        0.0268
     23 H         -13.7340    0.6840   -6.5790 H       1  UNL1        0.0274
     24 H         -13.8750   -0.5790   -2.1280 H       1  UNL1        0.0391
     25 H         -15.9710    3.8670   -2.8730 H       1  UNL1        0.0558
     26 H         -17.5660    4.0900   -5.4770 H       1  UNL1        0.0252
     27 C         -13.3000   -4.9040   -3.5510 C.ar    1  UNL1        0.1328
     28 C         -14.5480   -5.2840   -3.0790 C.ar    1  UNL1        0.0235
     29 C         -15.4020   -4.3140   -2.5780 C.ar    1  UNL1        0.1389
     30 C         -15.0210   -2.9640   -2.5290 C.ar    1  UNL1        0.0868
     31 C         -13.7560   -2.5510   -3.0030 C.ar    1  UNL1       -0.0028
     32 C         -12.9040   -3.5520   -3.5390 C.ar    1  UNL1        0.0832
     33 C         -11.6180   -3.1840   -4.1910 C.2     1  UNL1        0.2479
     34 O         -10.7790   -2.5130   -3.6130 O.2     1  UNL1       -0.2701
     35 N         -11.5030   -3.6660   -5.4740 N.am    1  UNL1       -0.3109
     36 C         -10.6990   -2.9970   -6.4840 C.3     1  UNL1        0.0153
     37 C         -11.5360   -2.7620   -7.7570 C.3     1  UNL1       -0.0191
     38 C         -12.8050   -1.9870   -7.4800 C.2     1  UNL1       -0.0865
     39 C         -13.9750   -2.5700   -7.1740 C.2     1  UNL1       -0.0879
     40 C         -15.2730   -1.9420   -6.7510 C.3     1  UNL1       -0.0347
     41 C         -15.5280   -0.4530   -6.9780 C.3     1  UNL1       -0.0488
     42 C         -14.7390    0.5780   -6.1620 C.3     1  UNL1       -0.0385
     43 C         -14.6900    0.3600   -4.6250 C.3     1  UNL1        0.0685
     44 C         -13.3720   -0.2930   -4.1990 C.2     1  UNL1        0.1455
     45 C         -13.3210   -1.1010   -2.9080 C.3     1  UNL1        0.0338
     46 O         -12.3400   -0.1010   -4.8500 O.2     1  UNL1       -0.2966
     47 C         -14.7810    1.7230   -3.9070 C.3     1  UNL1        0.1656
     48 O         -14.7600    1.5350   -2.5020 O.3     1  UNL1       -0.3663
     49 O         -16.0240    2.3260   -4.2580 O.3     1  UNL1       -0.3511
     50 C         -16.0840    3.7140   -3.9510 C.3     1  UNL1        0.0478
     51 C         -17.4310    4.2440   -4.4010 C.3     1  UNL1       -0.0415
     52 CL        -16.1720   -1.8460   -1.8700 Cl      1  UNL1       -0.0794
     53 O         -16.6250   -4.7400   -2.1310 O.3     1  UNL1       -0.5052
     54 O         -12.5070   -5.9160   -4.0250 O.3     1  UNL1       -0.5059
@<TRIPOS>BOND
     1    20    37    1
     2     7    37    1
     3    22    41    1
     4    37    38    1
     5    37    36    1
     6    38     1    1
     7    38    39    2
     8    21    40    1
     9     2    39    1
    10    39    40    1
    11    41     9    1
    12    41    40    1
    13    41    42    1
    14    40     8    1
    15     6    36    1
    16    23    42    1
    17    36    19    1
    18    36    35    1
    19    10    42    1
    20    42    43    1
    21     5    35    1
    22    26    51    1
    23    35    33   am
    24    46    44    2
    25    43    11    1
    26    43    44    1
    27    43    47    1
    28    15    50    1
    29    51    16    1
    30    51    50    1
    31    51    18    1
    32    49    50    1
    33    49    47    1
    34    13    47    1
    35    44    45    1
    36    33    34    2
    37    33    32    1
    38     3    54    1
    39    54    27    1
    40    50    25    1
    41    47    48    1
    42    27    32   ar
    43    27    28   ar
    44    32    31   ar
    45     4    28    1
    46    28    29   ar
    47    31    45    1
    48    31    30   ar
    49    45    12    1
    50    45    24    1
    51    29    30   ar
    52    29    53    1
    53    30    52    1
    54    48    14    1
    55    53    17    1
