@<TRIPOS>MOLECULE
7.05806
 54 55 0 0 0
SMALL
GASTEIGER

@<TRIPOS>ATOM
      1 H         -15.3540    0.3890   -9.2840 H       1  UNL1        0.0569
      2 H         -15.1720    2.2270   -6.8310 H       1  UNL1        0.0569
      3 H         -21.1520    0.0430   -5.5350 H       1  UNL1        0.2922
      4 H         -21.2460   -1.2790   -2.3030 H       1  UNL1        0.0691
      5 H         -17.1780    0.9950   -5.4160 H       1  UNL1        0.1490
      6 H         -17.3420    2.7600   -6.8990 H       1  UNL1        0.0465
      7 H         -17.4090    1.9940   -9.3570 H       1  UNL1        0.0322
      8 H         -12.8110    2.1470   -7.6410 H       1  UNL1        0.0307
      9 H         -13.4320    1.0540   -5.4380 H       1  UNL1        0.0268
     10 H         -12.7360   -1.6040   -6.6440 H       1  UNL1        0.0274
     11 H         -13.3480   -0.8950   -4.1200 H       1  UNL1        0.0427
     12 H         -16.3730   -2.8480   -5.0520 H       1  UNL1        0.0391
     13 H         -14.2650   -3.2230   -3.6990 H       1  UNL1        0.0914
     14 H         -12.2640   -3.9210   -3.9090 H       1  UNL1        0.2125
     15 H         -14.8480   -5.2930   -4.6130 H       1  UNL1        0.0558
     16 H         -14.9530   -6.8030   -6.6000 H       1  UNL1        0.0252
     17 H         -18.5810   -3.0510   -0.8330 H       1  UNL1        0.2922
     18 H         -14.3660   -5.4780   -7.6330 H       1  UNL1        0.0252
     19 H         -18.8850    2.1430   -7.4740 H       1  UNL1        0.0465
     20 H         -17.6960    0.3540   -8.7880 H       1  UNL1        0.0322
     21 H         -13.0860    0.6070   -8.4540 H       1  UNL1        0.0307
     22 H         -11.9470    0.4680   -6.1640 H       1  UNL1        0.0268
     23 H         -14.3840   -1.1040   -6.9650 H       1  UNL1        0.0274
     24 H         -16.7340   -1.5520   -6.1520 H       1  UNL1        0.0391
     25 H         -13.2500   -5.4290   -5.3980 H       1  UNL1        0.0558
     26 H         -15.9400   -5.3450   -6.8590 H       1  UNL1        0.0252
     27 C         -20.1660   -0.7400   -4.0840 C.ar    1  UNL1        0.1328
     28 C         -20.3080   -1.3470   -2.8450 C.ar    1  UNL1        0.0235
     29 C         -19.2350   -2.0440   -2.3130 C.ar    1  UNL1        0.1389
     30 C         -18.0290   -2.1640   -3.0230 C.ar    1  UNL1        0.0868
     31 C         -17.8650   -1.5600   -4.2900 C.ar    1  UNL1       -0.0028
     32 C         -18.9450   -0.7970   -4.7880 C.ar    1  UNL1        0.0832
     33 C         -18.8860   -0.0180   -6.0440 C.2     1  UNL1        0.2479
     34 O         -19.8070   -0.1340   -6.8480 O.2     1  UNL1       -0.2701
     35 N         -17.8680    0.8990   -6.1590 N.am    1  UNL1       -0.3109
     36 C         -17.8500    1.8570   -7.2530 C.3     1  UNL1        0.0153
     37 C         -17.2060    1.3020   -8.5300 C.3     1  UNL1       -0.0191
     38 C         -15.7190    1.0540   -8.5020 C.2     1  UNL1       -0.0865
     39 C         -14.8430    1.5500   -7.6150 C.2     1  UNL1       -0.0879
     40 C         -13.3800    1.2110   -7.5880 C.3     1  UNL1       -0.0347
     41 C         -13.0370    0.4830   -6.2880 C.3     1  UNL1       -0.0488
     42 C         -13.5490   -0.9680   -6.2700 C.3     1  UNL1       -0.0385
     43 C         -13.9750   -1.4130   -4.8600 C.3     1  UNL1        0.0685
     44 C         -15.4130   -0.9570   -4.5820 C.2     1  UNL1        0.1455
     45 C         -16.5910   -1.7800   -5.0910 C.3     1  UNL1        0.0338
     46 O         -15.6200    0.1460   -4.0590 O.2     1  UNL1       -0.2966
     47 C         -13.7650   -2.9150   -4.6220 C.3     1  UNL1        0.1656
     48 O         -12.3690   -3.1400   -4.4740 O.3     1  UNL1       -0.3663
     49 O         -14.2610   -3.6510   -5.7320 O.3     1  UNL1       -0.3511
     50 C         -14.2730   -5.0590   -5.5160 C.3     1  UNL1        0.0478
     51 C         -14.9190   -5.7170   -6.7190 C.3     1  UNL1       -0.0415
     52 CL        -16.7660   -3.1010   -2.2900 Cl      1  UNL1       -0.0794
     53 O         -19.4180   -2.6210   -1.0850 O.3     1  UNL1       -0.5052
     54 O         -21.2760   -0.0970   -4.5700 O.3     1  UNL1       -0.5059
@<TRIPOS>BOND
     1     7    37    1
     2     1    38    1
     3    20    37    1
     4    37    38    1
     5    37    36    1
     6    38    39    2
     7    21    40    1
     8     8    40    1
     9    18    51    1
    10    39    40    1
    11    39     2    1
    12    40    41    1
    13    19    36    1
    14    36     6    1
    15    36    35    1
    16    23    42    1
    17    26    51    1
    18    34    33    2
    19    51    16    1
    20    51    50    1
    21    10    42    1
    22    41    42    1
    23    41    22    1
    24    41     9    1
    25    42    43    1
    26    35    33   am
    27    35     5    1
    28    24    45    1
    29    33    32    1
    30    49    50    1
    31    49    47    1
    32     3    54    1
    33    50    25    1
    34    50    15    1
    35    45    12    1
    36    45    44    1
    37    45    31    1
    38    43    47    1
    39    43    44    1
    40    43    11    1
    41    32    31   ar
    42    32    27   ar
    43    47    48    1
    44    47    13    1
    45    44    46    2
    46    54    27    1
    47    48    14    1
    48    31    30   ar
    49    27    28   ar
    50    30    29   ar
    51    30    52    1
    52    28    29   ar
    53    28     4    1
    54    29    53    1
    55    53    17    1
