@<TRIPOS>MOLECULE
25.06137
 54 55 0 0 0
SMALL
GASTEIGER

@<TRIPOS>ATOM
      1 H         -16.9720    5.7090   -1.3840 H       1  UNL1        0.0569
      2 H         -15.3140    4.9440   -3.8450 H       1  UNL1        0.0569
      3 H         -20.4140    4.1070   -1.6440 H       1  UNL1        0.2922
      4 H         -19.3690    1.8720    0.7980 H       1  UNL1        0.0691
      5 H         -17.2820    3.6730   -4.5160 H       1  UNL1        0.1490
      6 H         -19.0650    5.9200   -4.9460 H       1  UNL1        0.0465
      7 H         -18.5240    6.6350   -2.7910 H       1  UNL1        0.0322
      8 H         -15.5910    3.2120   -1.6030 H       1  UNL1        0.0307
      9 H         -13.2100    2.7750   -1.5580 H       1  UNL1        0.0268
     10 H         -12.5710    2.3070   -3.7960 H       1  UNL1        0.0274
     11 H         -14.8050    1.1150   -2.7750 H       1  UNL1        0.0427
     12 H         -17.9430    1.5040   -4.9200 H       1  UNL1        0.0391
     13 H         -13.6660    0.7720   -5.6170 H       1  UNL1        0.0914
     14 H         -14.5760   -1.2000   -5.5890 H       1  UNL1        0.2125
     15 H         -11.6090   -0.3190   -5.5810 H       1  UNL1        0.0558
     16 H         -10.0800   -1.9430   -4.4540 H       1  UNL1        0.0252
     17 H         -17.2900   -0.9020    0.2060 H       1  UNL1        0.2922
     18 H         -11.1230   -1.9160   -3.0120 H       1  UNL1        0.0252
     19 H         -17.3710    5.7000   -5.4260 H       1  UNL1        0.0465
     20 H         -17.2130    7.3650   -3.6940 H       1  UNL1        0.0322
     21 H         -14.7160    4.5680   -0.9020 H       1  UNL1        0.0307
     22 H         -12.8560    4.2570   -2.4230 H       1  UNL1        0.0268
     23 H         -13.7360    3.3850   -4.4930 H       1  UNL1        0.0274
     24 H         -17.1100    0.1210   -4.3720 H       1  UNL1        0.0391
     25 H         -12.4820   -1.8020   -5.1060 H       1  UNL1        0.0558
     26 H         -10.2570   -0.4600   -3.4860 H       1  UNL1        0.0252
     27 C         -19.2330    2.6510   -1.2050 C.ar    1  UNL1        0.1328
     28 C         -18.9380    1.7490   -0.1920 C.ar    1  UNL1        0.0235
     29 C         -18.1070    0.6820   -0.4670 C.ar    1  UNL1        0.1389
     30 C         -17.5610    0.5110   -1.7470 C.ar    1  UNL1        0.0868
     31 C         -17.8130    1.4400   -2.7940 C.ar    1  UNL1       -0.0028
     32 C         -18.6800    2.5350   -2.5100 C.ar    1  UNL1        0.0832
     33 C         -19.0800    3.6440   -3.4470 C.2     1  UNL1        0.2479
     34 O         -20.1740    4.1860   -3.2880 O.2     1  UNL1       -0.2701
     35 N         -18.1450    4.1530   -4.3090 N.am    1  UNL1       -0.3109
     36 C         -18.0840    5.5760   -4.6030 C.3     1  UNL1        0.0153
     37 C         -17.6240    6.4000   -3.3770 C.3     1  UNL1       -0.0191
     38 C         -16.6680    5.7040   -2.4300 C.2     1  UNL1       -0.0865
     39 C         -15.6060    4.9650   -2.7980 C.2     1  UNL1       -0.0879
     40 C         -14.9120    4.0370   -1.8430 C.3     1  UNL1       -0.0347
     41 C         -13.5910    3.4470   -2.3380 C.3     1  UNL1       -0.0488
     42 C         -13.5970    2.6760   -3.6690 C.3     1  UNL1       -0.0385
     43 C         -14.5950    1.4850   -3.7810 C.3     1  UNL1        0.0685
     44 C         -15.8990    1.9030   -4.4560 C.2     1  UNL1        0.1455
     45 C         -17.2140    1.1870   -4.1610 C.3     1  UNL1        0.0338
     46 O         -15.9090    2.8220   -5.2850 O.2     1  UNL1       -0.2966
     47 C         -13.9640    0.3710   -4.6400 C.3     1  UNL1        0.1656
     48 O         -14.8950   -0.6800   -4.8330 O.3     1  UNL1       -0.3663
     49 O         -12.8400   -0.1360   -3.9270 O.3     1  UNL1       -0.3511
     50 C         -11.9620   -0.9140   -4.7320 C.3     1  UNL1        0.0478
     51 C         -10.7830   -1.3370   -3.8770 C.3     1  UNL1       -0.0415
     52 CL        -16.6030   -0.9200   -1.9810 Cl      1  UNL1       -0.0794
     53 O         -17.8640   -0.1950    0.5550 O.3     1  UNL1       -0.5052
     54 O         -20.0910    3.6580   -0.8290 O.3     1  UNL1       -0.5059
@<TRIPOS>BOND
     1    13    47    1
     2    14    48    1
     3    15    50    1
     4    19    36    1
     5    46    44    2
     6    25    50    1
     7     6    36    1
     8    12    45    1
     9    48    47    1
    10    50    49    1
    11    50    51    1
    12    47    49    1
    13    47    43    1
    14    36    35    1
    15    36    37    1
    16     5    35    1
    17    23    42    1
    18    44    45    1
    19    44    43    1
    20    16    51    1
    21    24    45    1
    22    35    33   am
    23    45    31    1
    24    51    26    1
    25    51    18    1
    26     2    39    1
    27    10    42    1
    28    43    42    1
    29    43    11    1
    30    20    37    1
    31    42    41    1
    32    33    34    2
    33    33    32    1
    34    37     7    1
    35    37    38    1
    36    39    38    2
    37    39    40    1
    38    31    32   ar
    39    31    30   ar
    40    32    27   ar
    41    38     1    1
    42    22    41    1
    43    41    40    1
    44    41     9    1
    45    52    30    1
    46    40     8    1
    47    40    21    1
    48    30    29   ar
    49     3    54    1
    50    27    54    1
    51    27    28   ar
    52    29    28   ar
    53    29    53    1
    54    28     4    1
    55    17    53    1
