@<TRIPOS>MOLECULE
11.90889
 54 55 0 0 0
SMALL
GASTEIGER

@<TRIPOS>ATOM
      1 H         -10.7380    0.3390   -6.9520 H       1  UNL1        0.0569
      2 H         -12.4420   -2.1860   -7.3470 H       1  UNL1        0.0569
      3 H          -7.7200   -0.3530   -1.5920 H       1  UNL1        0.2922
      4 H          -9.6330   -0.8520    1.2910 H       1  UNL1        0.0691
      5 H         -10.6210   -1.6200   -4.2120 H       1  UNL1        0.1490
      6 H          -8.2110   -1.9570   -5.3140 H       1  UNL1        0.0465
      7 H         -10.2030   -2.6800   -6.5450 H       1  UNL1        0.0322
      8 H         -13.4170    0.1020   -8.5050 H       1  UNL1        0.0307
      9 H         -15.0510   -1.4040   -7.7580 H       1  UNL1        0.0268
     10 H         -14.2520   -2.3120   -5.6700 H       1  UNL1        0.0274
     11 H         -15.0520   -1.1710   -3.5540 H       1  UNL1        0.0427
     12 H         -11.6220    0.8260   -4.0490 H       1  UNL1        0.0391
     13 H         -15.1000    1.1620   -3.2240 H       1  UNL1        0.0914
     14 H         -16.9640    1.4500   -4.1820 H       1  UNL1        0.2125
     15 H         -14.7030    3.3700   -3.9100 H       1  UNL1        0.0558
     16 H         -14.1330    4.9570   -5.7530 H       1  UNL1        0.0252
     17 H         -13.1290   -0.4410    1.4260 H       1  UNL1        0.2922
     18 H         -13.9400    3.5840   -6.8700 H       1  UNL1        0.0252
     19 H          -8.4870   -0.2670   -5.7460 H       1  UNL1        0.0465
     20 H          -9.1770   -1.7110   -7.6100 H       1  UNL1        0.0322
     21 H         -13.1180    0.7750   -6.9150 H       1  UNL1        0.0307
     22 H         -15.4400    0.1410   -7.0570 H       1  UNL1        0.0268
     23 H         -15.8790   -1.7220   -5.5660 H       1  UNL1        0.0274
     24 H         -12.9500    1.2410   -3.0250 H       1  UNL1        0.0391
     25 H         -15.8270    3.1840   -5.2860 H       1  UNL1        0.0558
     26 H         -12.8300    3.7660   -5.5180 H       1  UNL1        0.0252
     27 C          -9.4760   -0.5310   -0.8320 C.ar    1  UNL1        0.1328
     28 C         -10.1640   -0.6330    0.3700 C.ar    1  UNL1        0.0235
     29 C         -11.5370   -0.4500    0.3740 C.ar    1  UNL1        0.1389
     30 C         -12.2270   -0.1360   -0.8070 C.ar    1  UNL1        0.0868
     31 C         -11.5450   -0.0130   -2.0390 C.ar    1  UNL1       -0.0028
     32 C         -10.1540   -0.2730   -2.0410 C.ar    1  UNL1        0.0832
     33 C          -9.3230   -0.2910   -3.2690 C.2     1  UNL1        0.2479
     34 O          -8.2400    0.2870   -3.2530 O.2     1  UNL1       -0.2701
     35 N          -9.7730   -1.0580   -4.3140 N.am    1  UNL1       -0.3109
     36 C          -8.9900   -1.2160   -5.5250 C.3     1  UNL1        0.0153
     37 C          -9.8250   -1.6660   -6.7270 C.3     1  UNL1       -0.0191
     38 C         -10.9630   -0.7250   -7.0050 C.2     1  UNL1       -0.0865
     39 C         -12.2170   -1.1240   -7.2700 C.2     1  UNL1       -0.0879
     40 C         -13.3480   -0.1560   -7.4410 C.3     1  UNL1       -0.0347
     41 C         -14.7170   -0.6810   -7.0000 C.3     1  UNL1       -0.0488
     42 C         -14.8360   -1.3840   -5.6400 C.3     1  UNL1       -0.0385
     43 C         -14.5270   -0.6020   -4.3380 C.3     1  UNL1        0.0685
     44 C         -13.0560   -0.7460   -3.9240 C.2     1  UNL1        0.1455
     45 C         -12.2960    0.4100   -3.2930 C.3     1  UNL1        0.0338
     46 O         -12.4840   -1.8420   -4.0270 O.2     1  UNL1       -0.2966
     47 C         -15.1310    0.8080   -4.2600 C.3     1  UNL1        0.1656
     48 O         -16.4930    0.7470   -4.6570 O.3     1  UNL1       -0.3663
     49 O         -14.4000    1.6940   -5.0890 O.3     1  UNL1       -0.3511
     50 C         -14.7910    3.0570   -4.9560 C.3     1  UNL1        0.0478
     51 C         -13.8740    3.8960   -5.8230 C.3     1  UNL1       -0.0415
     52 CL        -13.9420    0.1040   -0.6900 Cl      1  UNL1       -0.0794
     53 O         -12.1750   -0.5710    1.5800 O.3     1  UNL1       -0.5052
     54 O          -8.1150   -0.6940   -0.7590 O.3     1  UNL1       -0.5059
@<TRIPOS>BOND
     1     8    40    1
     2     9    41    1
     3    20    37    1
     4    40    39    1
     5    40    41    1
     6    40    21    1
     7     2    39    1
     8    39    38    2
     9    22    41    1
    10    38     1    1
    11    38    37    1
    12    41    42    1
    13    18    51    1
    14    37     7    1
    15    37    36    1
    16    51    16    1
    17    51    26    1
    18    51    50    1
    19    19    36    1
    20    10    42    1
    21    42    23    1
    22    42    43    1
    23    36     6    1
    24    36    35    1
    25    25    50    1
    26    49    50    1
    27    49    47    1
    28    50    15    1
    29    48    47    1
    30    48    14    1
    31    43    47    1
    32    43    44    1
    33    43    11    1
    34    35     5    1
    35    35    33   am
    36    47    13    1
    37    12    45    1
    38    46    44    2
    39    44    45    1
    40    45    24    1
    41    45    31    1
    42    33    34    2
    43    33    32    1
    44    32    31   ar
    45    32    27   ar
    46    31    30   ar
    47     3    54    1
    48    27    54    1
    49    27    28   ar
    50    30    52    1
    51    30    29   ar
    52    28    29   ar
    53    28     4    1
    54    29    53    1
    55    17    53    1
