@<TRIPOS>MOLECULE
11.21548
 54 55 0 0 0
SMALL
GASTEIGER

@<TRIPOS>ATOM
      1 H         -15.7740   -1.6430   -3.5890 H       1  UNL1        0.0569
      2 H         -15.1050   -2.0370   -6.5610 H       1  UNL1        0.0569
      3 H         -14.1230   -7.4990   -1.4420 H       1  UNL1        0.2922
      4 H         -13.5660   -6.8570    1.9520 H       1  UNL1        0.0691
      5 H         -14.8860   -3.5950   -2.3800 H       1  UNL1        0.1490
      6 H         -15.7170   -5.5790   -4.2950 H       1  UNL1        0.0465
      7 H         -17.1460   -3.5780   -3.8980 H       1  UNL1        0.0322
      8 H         -15.0890    0.5920   -5.2300 H       1  UNL1        0.0307
      9 H         -12.3760    0.2710   -4.9870 H       1  UNL1        0.0268
     10 H         -14.5540    0.1070   -2.9100 H       1  UNL1        0.0274
     11 H         -12.8550    0.2420   -1.1180 H       1  UNL1        0.0427
     12 H         -12.1480   -3.3660   -2.6160 H       1  UNL1        0.0391
     13 H         -10.9340    0.8260   -2.6150 H       1  UNL1        0.0914
     14 H          -9.9130   -0.6980   -3.6920 H       1  UNL1        0.2125
     15 H          -9.0190    1.0700   -1.2960 H       1  UNL1        0.0558
     16 H          -7.4210    0.0360    0.3170 H       1  UNL1        0.0252
     17 H         -12.0760   -3.9010    3.1600 H       1  UNL1        0.2922
     18 H          -8.5260   -1.3420    0.5290 H       1  UNL1        0.0252
     19 H         -14.4360   -4.5740   -4.9760 H       1  UNL1        0.0465
     20 H         -16.7120   -3.7360   -5.5960 H       1  UNL1        0.0322
     21 H         -14.0380    0.0140   -6.5120 H       1  UNL1        0.0307
     22 H         -12.8540   -1.3520   -4.5060 H       1  UNL1        0.0268
     23 H         -13.3410    1.3260   -3.1840 H       1  UNL1        0.0274
     24 H         -11.2030   -2.6760   -1.3280 H       1  UNL1        0.0391
     25 H          -8.5350   -0.5610   -1.8370 H       1  UNL1        0.0558
     26 H          -9.0170    0.2580    1.0740 H       1  UNL1        0.0252
     27 C         -13.6370   -6.2140   -0.1010 C.ar    1  UNL1        0.1328
     28 C         -13.3350   -6.0660    1.2460 C.ar    1  UNL1        0.0235
     29 C         -12.7390   -4.8900    1.6750 C.ar    1  UNL1        0.1389
     30 C         -12.4070   -3.8740    0.7650 C.ar    1  UNL1        0.0868
     31 C         -12.6820   -4.0150   -0.6130 C.ar    1  UNL1       -0.0028
     32 C         -13.3660   -5.1830   -1.0220 C.ar    1  UNL1        0.0832
     33 C         -13.8520   -5.4000   -2.4040 C.2     1  UNL1        0.2479
     34 O         -13.6080   -6.4700   -2.9530 O.2     1  UNL1       -0.2701
     35 N         -14.6670   -4.4260   -2.9300 N.am    1  UNL1       -0.3109
     36 C         -15.2570   -4.5850   -4.2480 C.3     1  UNL1        0.0153
     37 C         -16.3050   -3.5240   -4.6000 C.3     1  UNL1       -0.0191
     38 C         -15.7370   -2.1340   -4.5580 C.2     1  UNL1       -0.0865
     39 C         -15.1460   -1.5290   -5.5990 C.2     1  UNL1       -0.0879
     40 C         -14.4070   -0.2210   -5.5060 C.3     1  UNL1       -0.0347
     41 C         -13.2000   -0.3140   -4.5590 C.3     1  UNL1       -0.0488
     42 C         -13.4950    0.2390   -3.1580 C.3     1  UNL1       -0.0385
     43 C         -12.6320   -0.3520   -2.0180 C.3     1  UNL1        0.0685
     44 C         -13.1470   -1.7520   -1.6490 C.2     1  UNL1        0.1455
     45 C         -12.2210   -2.9560   -1.6030 C.3     1  UNL1        0.0338
     46 O         -14.3580   -1.9150   -1.4270 O.2     1  UNL1       -0.2966
     47 C         -11.1260   -0.1970   -2.2670 C.3     1  UNL1        0.1656
     48 O         -10.6770   -1.1080   -3.2530 O.3     1  UNL1       -0.3663
     49 O         -10.4430   -0.4090   -1.0390 O.3     1  UNL1       -0.3511
     50 C          -9.0790   -0.0000   -1.0700 C.3     1  UNL1        0.0478
     51 C          -8.4690   -0.2750    0.2900 C.3     1  UNL1       -0.0415
     52 CL        -11.6520   -2.4480    1.4020 Cl      1  UNL1       -0.0794
     53 O         -12.4770   -4.7780    3.0150 O.3     1  UNL1       -0.5052
     54 O         -14.2030   -7.4080   -0.4660 O.3     1  UNL1       -0.5059
@<TRIPOS>BOND
     1     2    39    1
     2    21    40    1
     3    39    40    1
     4    39    38    2
     5    20    37    1
     6    40     8    1
     7    40    41    1
     8     9    41    1
     9    19    36    1
    10    37    38    1
    11    37    36    1
    12    37     7    1
    13    41    22    1
    14    41    42    1
    15    38     1    1
    16     6    36    1
    17    36    35    1
    18    14    48    1
    19    48    47    1
    20    23    42    1
    21    42    10    1
    22    42    43    1
    23    34    33    2
    24    35    33   am
    25    35     5    1
    26    12    45    1
    27    13    47    1
    28    33    32    1
    29    47    43    1
    30    47    49    1
    31    43    44    1
    32    43    11    1
    33    25    50    1
    34    44    45    1
    35    44    46    2
    36    45    24    1
    37    45    31    1
    38     3    54    1
    39    15    50    1
    40    50    49    1
    41    50    51    1
    42    32    31   ar
    43    32    27   ar
    44    31    30   ar
    45    54    27    1
    46    27    28   ar
    47    51    16    1
    48    51    18    1
    49    51    26    1
    50    30    52    1
    51    30    29   ar
    52    28    29   ar
    53    28     4    1
    54    29    53    1
    55    53    17    1
