@<TRIPOS>MOLECULE
5.63279
 54 55 0 0 0
SMALL
GASTEIGER

@<TRIPOS>ATOM
      1 H         -12.7930    0.7200   -3.4880 H       1  UNL1        0.0569
      2 H         -11.1930   -0.6560   -1.2520 H       1  UNL1        0.0569
      3 H         -16.6040   -4.4420   -4.9110 H       1  UNL1        0.2922
      4 H         -19.5760   -2.8390   -5.8290 H       1  UNL1        0.0691
      5 H         -14.6790   -0.9900   -3.9290 H       1  UNL1        0.1490
      6 H         -12.9720   -3.3020   -4.0280 H       1  UNL1        0.0465
      7 H         -12.1170   -1.1160   -4.8330 H       1  UNL1        0.0322
      8 H         -12.2740    2.2150   -1.6560 H       1  UNL1        0.0307
      9 H         -13.0910    2.2430    0.6410 H       1  UNL1        0.0268
     10 H         -14.8770    0.5210    0.7410 H       1  UNL1        0.0274
     11 H         -14.4380    2.1390   -1.7470 H       1  UNL1        0.0427
     12 H         -15.9620   -1.3500   -1.4250 H       1  UNL1        0.0391
     13 H         -16.7980    2.8490   -1.3850 H       1  UNL1        0.0914
     14 H         -16.0980    4.2170    0.0930 H       1  UNL1        0.2125
     15 H         -18.7160    2.7940   -0.0660 H       1  UNL1        0.0558
     16 H         -19.8820    1.9880    1.9890 H       1  UNL1        0.0252
     17 H         -20.8230    0.0380   -4.2200 H       1  UNL1        0.2922
     18 H         -18.4370    1.0510    2.4380 H       1  UNL1        0.0252
     19 H         -13.0770   -2.6960   -2.3740 H       1  UNL1        0.0465
     20 H         -11.0870   -1.7810   -3.5750 H       1  UNL1        0.0322
     21 H         -10.9820    1.7280   -0.5870 H       1  UNL1        0.0307
     22 H         -12.4880    0.6240    0.9450 H       1  UNL1        0.0268
     23 H         -14.1380   -0.3580   -0.5680 H       1  UNL1        0.0274
     24 H         -17.3000   -0.3060   -1.0630 H       1  UNL1        0.0391
     25 H         -17.7970    3.2300    1.4010 H       1  UNL1        0.0558
     26 H         -19.3410    0.6170    0.9920 H       1  UNL1        0.0252
     27 C         -17.7220   -2.8910   -4.7370 C.ar    1  UNL1        0.1328
     28 C         -18.9670   -2.3690   -5.0620 C.ar    1  UNL1        0.0235
     29 C         -19.4210   -1.2400   -4.3950 C.ar    1  UNL1        0.1389
     30 C         -18.6560   -0.6440   -3.3800 C.ar    1  UNL1        0.0868
     31 C         -17.4000   -1.1730   -3.0200 C.ar    1  UNL1       -0.0028
     32 C         -16.9150   -2.2740   -3.7640 C.ar    1  UNL1        0.0832
     33 C         -15.5600   -2.8380   -3.5650 C.2     1  UNL1        0.2479
     34 O         -15.4430   -4.0490   -3.4080 O.2     1  UNL1       -0.2701
     35 N         -14.5070   -1.9590   -3.6630 N.am    1  UNL1       -0.3109
     36 C         -13.1450   -2.4010   -3.4280 C.3     1  UNL1        0.0153
     37 C         -12.0790   -1.3530   -3.7620 C.3     1  UNL1       -0.0191
     38 C         -12.2340   -0.0710   -2.9910 C.2     1  UNL1       -0.0865
     39 C         -11.7480    0.1330   -1.7560 C.2     1  UNL1       -0.0879
     40 C         -11.9520    1.4080   -0.9880 C.3     1  UNL1       -0.0347
     41 C         -12.9440    1.2610    0.1760 C.3     1  UNL1       -0.0488
     42 C         -14.3110    0.6550   -0.1890 C.3     1  UNL1       -0.0385
     43 C         -15.1280    1.4850   -1.2010 C.3     1  UNL1        0.0685
     44 C         -15.7610    0.6090   -2.2740 C.2     1  UNL1        0.1455
     45 C         -16.6110   -0.5840   -1.8630 C.3     1  UNL1        0.0338
     46 O         -15.5370    0.8460   -3.4680 O.2     1  UNL1       -0.2966
     47 C         -16.1920    2.4030   -0.5860 C.3     1  UNL1        0.1656
     48 O         -15.5220    3.4370    0.1210 O.3     1  UNL1       -0.3663
     49 O         -17.0190    1.6600    0.2980 O.3     1  UNL1       -0.3511
     50 C         -18.1390    2.3980    0.7760 C.3     1  UNL1        0.0478
     51 C         -19.0050    1.4650    1.5980 C.3     1  UNL1       -0.0415
     52 CL        -19.3090    0.7580   -2.5930 Cl      1  UNL1       -0.0794
     53 O         -20.6470   -0.7530   -4.7630 O.3     1  UNL1       -0.5052
     54 O         -17.3410   -4.0240   -5.4080 O.3     1  UNL1       -0.5059
@<TRIPOS>BOND
     1     4    28    1
     2    54     3    1
     3    54    27    1
     4    28    27   ar
     5    28    29   ar
     6     7    37    1
     7    53    29    1
     8    53    17    1
     9    27    32   ar
    10    29    30   ar
    11     6    36    1
    12     5    35    1
    13    32    33    1
    14    32    31   ar
    15    37    20    1
    16    37    36    1
    17    37    38    1
    18    35    33   am
    19    35    36    1
    20    33    34    2
    21     1    38    1
    22    46    44    2
    23    36    19    1
    24    30    31   ar
    25    30    52    1
    26    31    45    1
    27    38    39    2
    28    44    45    1
    29    44    43    1
    30    45    12    1
    31    45    24    1
    32    39     2    1
    33    39    40    1
    34    11    43    1
    35     8    40    1
    36    13    47    1
    37    43    47    1
    38    43    42    1
    39    40    21    1
    40    40    41    1
    41    47    48    1
    42    47    49    1
    43    23    42    1
    44    42    41    1
    45    42    10    1
    46    15    50    1
    47    14    48    1
    48    41     9    1
    49    41    22    1
    50    49    50    1
    51    50    25    1
    52    50    51    1
    53    26    51    1
    54    51    16    1
    55    51    18    1
