@<TRIPOS>MOLECULE
17.56946
 54 55 0 0 0
SMALL
GASTEIGER

@<TRIPOS>ATOM
      1 H         -14.9440   -1.7310   -6.6370 H       1  UNL1        0.0569
      2 H         -17.8340   -2.3460   -7.4660 H       1  UNL1        0.0569
      3 H         -18.2220    0.9600   -7.9430 H       1  UNL1        0.2922
      4 H         -20.2120    3.5960   -7.1580 H       1  UNL1        0.0691
      5 H         -16.5610    1.9020   -8.5100 H       1  UNL1        0.1490
      6 H         -14.1530    0.3550   -7.9570 H       1  UNL1        0.0465
      7 H         -14.9810   -1.6870   -9.2050 H       1  UNL1        0.0322
      8 H         -16.8530   -4.0170   -5.5630 H       1  UNL1        0.0307
      9 H         -16.4250   -3.0620   -3.4490 H       1  UNL1        0.0268
     10 H         -17.8980   -1.2420   -3.2200 H       1  UNL1        0.0274
     11 H         -15.1090    0.0210   -3.5250 H       1  UNL1        0.0427
     12 H         -16.0230    3.2370   -2.9470 H       1  UNL1        0.0391
     13 H         -16.6460   -0.7240   -0.9840 H       1  UNL1        0.0914
     14 H         -15.0520    0.2760   -0.0110 H       1  UNL1        0.2125
     15 H         -15.9290   -2.7030    0.0120 H       1  UNL1        0.0558
     16 H         -14.1640   -4.4580    0.2410 H       1  UNL1        0.0252
     17 H         -20.1730    5.1950   -4.0290 H       1  UNL1        0.2922
     18 H         -13.3070   -3.7700   -1.1600 H       1  UNL1        0.0252
     19 H         -14.8910    0.7240   -9.5250 H       1  UNL1        0.0465
     20 H         -16.6260   -1.0510   -9.1440 H       1  UNL1        0.0322
     21 H         -18.2110   -2.9600   -5.2260 H       1  UNL1        0.0307
     22 H         -15.3200   -2.2160   -4.5190 H       1  UNL1        0.0268
     23 H         -17.3560   -0.4620   -4.6790 H       1  UNL1        0.0274
     24 H         -15.2260    2.2310   -4.0590 H       1  UNL1        0.0391
     25 H         -14.3190   -1.9670    0.2470 H       1  UNL1        0.0558
     26 H         -14.8940   -4.4970   -1.3820 H       1  UNL1        0.0252
     27 C         -18.3680    2.5220   -6.8540 C.ar    1  UNL1        0.1328
     28 C         -19.3740    3.4080   -6.4930 C.ar    1  UNL1        0.0235
     29 C         -19.3100    4.0270   -5.2580 C.ar    1  UNL1        0.1389
     30 C         -18.2670    3.7460   -4.3650 C.ar    1  UNL1        0.0868
     31 C         -17.2300    2.8440   -4.7130 C.ar    1  UNL1       -0.0028
     32 C         -17.2540    2.2760   -6.0190 C.ar    1  UNL1        0.0832
     33 C         -16.1300    1.4200   -6.5340 C.2     1  UNL1        0.2479
     34 O         -15.3490    0.8640   -5.7750 O.2     1  UNL1       -0.2701
     35 N         -16.0210    1.2890   -7.9050 N.am    1  UNL1       -0.3109
     36 C         -15.0960    0.3500   -8.5160 C.3     1  UNL1        0.0153
     37 C         -15.6690   -1.0760   -8.6090 C.3     1  UNL1       -0.0191
     38 C         -15.8320   -1.7420   -7.2670 C.2     1  UNL1       -0.0865
     39 C         -16.9610   -2.3130   -6.8160 C.2     1  UNL1       -0.0879
     40 C         -17.1400   -2.9630   -5.4640 C.3     1  UNL1       -0.0347
     41 C         -16.3790   -2.3450   -4.2780 C.3     1  UNL1       -0.0488
     42 C         -16.9970   -1.0210   -3.8090 C.3     1  UNL1       -0.0385
     43 C         -16.0540   -0.1140   -2.9900 C.3     1  UNL1        0.0685
     44 C         -16.7350    1.2390   -2.8380 C.2     1  UNL1        0.1455
     45 C         -16.2200    2.4220   -3.6530 C.3     1  UNL1        0.0338
     46 O         -17.7320    1.3570   -2.1150 O.2     1  UNL1       -0.2966
     47 C         -15.7310   -0.6280   -1.5820 C.3     1  UNL1        0.1656
     48 O         -14.8530    0.3070   -0.9610 O.3     1  UNL1       -0.3663
     49 O         -15.0690   -1.8830   -1.6820 O.3     1  UNL1       -0.3511
     50 C         -14.9410   -2.5560   -0.4360 C.3     1  UNL1        0.0478
     51 C         -14.2880   -3.9000   -0.6910 C.3     1  UNL1       -0.0415
     52 CL        -18.3100    4.5620   -2.8310 Cl      1  UNL1       -0.0794
     53 O         -20.3260    4.8900   -4.9440 O.3     1  UNL1       -0.5052
     54 O         -18.5710    1.8690   -8.0450 O.3     1  UNL1       -0.5059
@<TRIPOS>BOND
     1    19    36    1
     2     7    37    1
     3    20    37    1
     4    37    36    1
     5    37    38    1
     6    36     6    1
     7    36    35    1
     8     5    35    1
     9    54     3    1
    10    54    27    1
    11    35    33   am
    12     2    39    1
    13    38    39    2
    14    38     1    1
    15     4    28    1
    16    27    28   ar
    17    27    32   ar
    18    39    40    1
    19    33    32    1
    20    33    34    2
    21    28    29   ar
    22    32    31   ar
    23     8    40    1
    24    40    21    1
    25    40    41    1
    26    29    53    1
    27    29    30   ar
    28    53    17    1
    29    31    30   ar
    30    31    45    1
    31    23    42    1
    32    22    41    1
    33    30    52    1
    34    41    42    1
    35    41     9    1
    36    24    45    1
    37    42    10    1
    38    42    43    1
    39    45    12    1
    40    45    44    1
    41    11    43    1
    42    43    44    1
    43    43    47    1
    44    44    46    2
    45    49    47    1
    46    49    50    1
    47    47    13    1
    48    47    48    1
    49    26    51    1
    50    18    51    1
    51    48    14    1
    52    51    50    1
    53    51    16    1
    54    50    15    1
    55    50    25    1
