@<TRIPOS>MOLECULE
12.58208
 54 55 0 0 0
SMALL
GASTEIGER

@<TRIPOS>ATOM
      1 H         -13.5740    3.4350   -3.5040 H       1  UNL1        0.0569
      2 H         -10.6680    3.9850   -4.3160 H       1  UNL1        0.0569
      3 H         -15.8310    8.9890   -5.2180 H       1  UNL1        0.2922
      4 H         -19.3000    8.8290   -4.9860 H       1  UNL1        0.0691
      5 H         -15.1590    5.8120   -2.8410 H       1  UNL1        0.1490
      6 H         -13.0640    7.2420   -2.6110 H       1  UNL1        0.0465
      7 H         -12.9750    4.9350   -1.6930 H       1  UNL1        0.0322
      8 H         -11.1200    1.4870   -4.8540 H       1  UNL1        0.0307
      9 H         -13.6360    1.4990   -4.6960 H       1  UNL1        0.0268
     10 H         -13.5480    2.8220   -7.4620 H       1  UNL1        0.0274
     11 H         -15.6920    1.7830   -5.5930 H       1  UNL1        0.0427
     12 H         -17.1280    3.3310   -4.4050 H       1  UNL1        0.0391
     13 H         -15.8490    2.3150   -8.6030 H       1  UNL1        0.0914
     14 H         -17.6570    1.2610   -8.3750 H       1  UNL1        0.2125
     15 H         -14.9910    0.6510   -9.9850 H       1  UNL1        0.0558
     16 H         -14.2910   -1.7300  -10.2600 H       1  UNL1        0.0252
     17 H         -21.1100    5.8120   -5.1110 H       1  UNL1        0.2922
     18 H         -14.3700   -1.9530   -8.4960 H       1  UNL1        0.0252
     19 H         -12.6350    6.6540   -4.2190 H       1  UNL1        0.0465
     20 H         -11.4490    5.3800   -2.4460 H       1  UNL1        0.0322
     21 H         -11.2180    2.6000   -6.2110 H       1  UNL1        0.0307
     22 H         -13.0020    0.8500   -6.1950 H       1  UNL1        0.0268
     23 H         -13.8220    3.7820   -6.0340 H       1  UNL1        0.0274
     24 H         -15.6220    4.1770   -4.3630 H       1  UNL1        0.0391
     25 H         -16.2060   -0.4570   -9.2890 H       1  UNL1        0.0558
     26 H         -13.1720   -0.8620   -9.1810 H       1  UNL1        0.0252
     27 C         -17.3650    7.8930   -4.8660 C.ar    1  UNL1        0.1328
     28 C         -18.7510    7.8940   -4.9300 C.ar    1  UNL1        0.0235
     29 C         -19.4230    6.6820   -4.9530 C.ar    1  UNL1        0.1389
     30 C         -18.7220    5.4660   -4.9180 C.ar    1  UNL1        0.0868
     31 C         -17.3130    5.4420   -4.8190 C.ar    1  UNL1       -0.0028
     32 C         -16.6410    6.6880   -4.7720 C.ar    1  UNL1        0.0832
     33 C         -15.1690    6.8230   -4.6490 C.2     1  UNL1        0.2479
     34 O         -14.5800    7.5580   -5.4360 O.2     1  UNL1       -0.2701
     35 N         -14.5770    6.2220   -3.5600 N.am    1  UNL1       -0.3109
     36 C         -13.1550    6.3890   -3.2920 C.3     1  UNL1        0.0153
     37 C         -12.5010    5.1560   -2.6570 C.3     1  UNL1       -0.0191
     38 C         -12.6120    3.9360   -3.5300 C.2     1  UNL1       -0.0865
     39 C         -11.6300    3.4720   -4.3200 C.2     1  UNL1       -0.0879
     40 C         -11.7140    2.3060   -5.2770 C.3     1  UNL1       -0.0347
     41 C         -13.1140    1.7760   -5.6190 C.3     1  UNL1       -0.0488
     42 C         -13.9470    2.7730   -6.4410 C.3     1  UNL1       -0.0385
     43 C         -15.4430    2.4050   -6.4630 C.3     1  UNL1        0.0685
     44 C         -16.2620    3.6840   -6.3300 C.2     1  UNL1        0.1455
     45 C         -16.5650    4.1270   -4.9040 C.3     1  UNL1        0.0338
     46 O         -16.6080    4.3390   -7.3140 O.2     1  UNL1       -0.2966
     47 C         -15.8790    1.6570   -7.7250 C.3     1  UNL1        0.1656
     48 O         -17.2070    1.1910   -7.5170 O.3     1  UNL1       -0.3663
     49 O         -15.0140    0.5420   -7.9180 O.3     1  UNL1       -0.3511
     50 C         -15.1840   -0.0770   -9.1890 C.3     1  UNL1        0.0478
     51 C         -14.1990   -1.2240   -9.2940 C.3     1  UNL1       -0.0415
     52 CL        -19.6520    4.0030   -5.0120 Cl      1  UNL1       -0.0794
     53 O         -20.7890    6.7300   -5.0350 O.3     1  UNL1       -0.5052
     54 O         -16.7550    9.1210   -4.9090 O.3     1  UNL1       -0.5059
@<TRIPOS>BOND
     1    16    51    1
     2    15    50    1
     3    51    50    1
     4    51    26    1
     5    51    18    1
     6    25    50    1
     7    50    49    1
     8    13    47    1
     9    14    48    1
    10    49    47    1
    11    47    48    1
    12    47    43    1
    13    10    42    1
    14    46    44    2
    15    43    42    1
    16    43    44    1
    17    43    11    1
    18    42    23    1
    19    42    41    1
    20    44    45    1
    21    21    40    1
    22    22    41    1
    23    41    40    1
    24    41     9    1
    25    34    33    2
    26    40     8    1
    27    40    39    1
    28     3    54    1
    29    17    53    1
    30    53    29    1
    31    52    30    1
    32     4    28    1
    33    29    28   ar
    34    29    30   ar
    35    28    27   ar
    36    30    31   ar
    37    54    27    1
    38    45    31    1
    39    45    12    1
    40    45    24    1
    41    27    32   ar
    42    31    32   ar
    43    32    33    1
    44    33    35   am
    45    39     2    1
    46    39    38    2
    47    19    36    1
    48    35    36    1
    49    35     5    1
    50    38     1    1
    51    38    37    1
    52    36    37    1
    53    36     6    1
    54    37    20    1
    55    37     7    1
