@<TRIPOS>MOLECULE
10.41995
 54 55 0 0 0
SMALL
GASTEIGER

@<TRIPOS>ATOM
      1 H         -14.8930    1.8490   -7.3440 H       1  UNL1        0.0569
      2 H         -16.7300    3.5900   -9.0810 H       1  UNL1        0.0569
      3 H         -17.1510   -1.0730  -12.9900 H       1  UNL1        0.2922
      4 H         -15.0260   -1.1430  -15.7590 H       1  UNL1        0.0691
      5 H         -14.2450    0.1650  -10.3770 H       1  UNL1        0.1490
      6 H         -15.0820   -0.5720   -8.4090 H       1  UNL1        0.0465
      7 H         -17.1180    0.5830   -7.4950 H       1  UNL1        0.0322
      8 H         -14.3920    4.2380   -7.1770 H       1  UNL1        0.0307
      9 H         -13.4750    3.8930   -9.4950 H       1  UNL1        0.0268
     10 H         -14.7470    6.5330  -10.2370 H       1  UNL1        0.0274
     11 H         -12.8620    4.9730  -11.5340 H       1  UNL1        0.0427
     12 H         -12.9260    2.6440  -11.7030 H       1  UNL1        0.0391
     13 H         -15.0340    6.4680  -13.0950 H       1  UNL1        0.0914
     14 H         -13.6310    6.2960  -14.6450 H       1  UNL1        0.2125
     15 H         -14.8370    8.7940  -13.0660 H       1  UNL1        0.0558
     16 H         -13.3940   10.7970  -12.6890 H       1  UNL1        0.0252
     17 H         -12.4390    1.1880  -16.2920 H       1  UNL1        0.2922
     18 H         -12.1550    9.7600  -11.9420 H       1  UNL1        0.0252
     19 H         -16.5720   -1.0310   -9.2450 H       1  UNL1        0.0465
     20 H         -17.4260    1.3140   -9.0670 H       1  UNL1        0.0322
     21 H         -15.5710    5.3750   -7.8150 H       1  UNL1        0.0307
     22 H         -13.2360    5.5000   -8.8450 H       1  UNL1        0.0268
     23 H         -15.7210    5.1130  -10.5310 H       1  UNL1        0.0274
     24 H         -14.4880    2.3730  -10.9660 H       1  UNL1        0.0391
     25 H         -13.2510    8.5990  -13.8630 H       1  UNL1        0.0558
     26 H         -13.7170    9.9530  -11.1550 H       1  UNL1        0.0252
     27 C         -15.5270   -0.4330  -13.7890 C.ar    1  UNL1        0.1328
     28 C         -14.7970   -0.4320  -14.9700 C.ar    1  UNL1        0.0235
     29 C         -13.7780    0.4930  -15.1300 C.ar    1  UNL1        0.1389
     30 C         -13.4960    1.4340  -14.1290 C.ar    1  UNL1        0.0868
     31 C         -14.2270    1.4540  -12.9200 C.ar    1  UNL1       -0.0028
     32 C         -15.2280    0.4690  -12.7460 C.ar    1  UNL1        0.0832
     33 C         -15.9940    0.2780  -11.4880 C.2     1  UNL1        0.2479
     34 O         -17.2080    0.1120  -11.5480 O.2     1  UNL1       -0.2701
     35 N         -15.2550    0.1440  -10.3340 N.am    1  UNL1       -0.3109
     36 C         -15.8770   -0.2030   -9.0660 C.3     1  UNL1        0.0153
     37 C         -16.6300    0.9580   -8.4030 C.3     1  UNL1       -0.0191
     38 C         -15.7210    2.0930   -8.0060 C.2     1  UNL1       -0.0865
     39 C         -15.8900    3.3550   -8.4290 C.2     1  UNL1       -0.0879
     40 C         -14.9730    4.4930   -8.0710 C.3     1  UNL1       -0.0347
     41 C         -14.0050    4.8090   -9.2140 C.3     1  UNL1       -0.0488
     42 C         -14.6850    5.4560  -10.4320 C.3     1  UNL1       -0.0385
     43 C         -13.9230    5.1650  -11.7390 C.3     1  UNL1        0.0685
     44 C         -14.5250    3.9200  -12.3900 C.2     1  UNL1        0.1455
     45 C         -13.9980    2.5700  -11.9190 C.3     1  UNL1        0.0338
     46 O         -15.4680    4.0000  -13.1830 O.2     1  UNL1       -0.2966
     47 C         -14.0040    6.3190  -12.7470 C.3     1  UNL1        0.1656
     48 O         -13.1600    6.0030  -13.8470 O.3     1  UNL1       -0.3663
     49 O         -13.5210    7.5060  -12.1210 O.3     1  UNL1       -0.3511
     50 C         -13.7610    8.6750  -12.8970 C.3     1  UNL1        0.0478
     51 C         -13.2280    9.8710  -12.1310 C.3     1  UNL1       -0.0415
     52 CL        -12.2080    2.5600  -14.4260 Cl      1  UNL1       -0.0794
     53 O         -13.0790    0.4520  -16.3070 O.3     1  UNL1       -0.5052
     54 O         -16.5370   -1.3570  -13.7050 O.3     1  UNL1       -0.5059
@<TRIPOS>BOND
     1    53    17    1
     2    53    29    1
     3     4    28    1
     4    29    28   ar
     5    29    30   ar
     6    28    27   ar
     7    14    48    1
     8    52    30    1
     9    30    31   ar
    10    25    50    1
    11    48    47    1
    12    27    54    1
    13    27    32   ar
    14    54     3    1
    15    46    44    2
    16    13    47    1
    17    15    50    1
    18    31    32   ar
    19    31    45    1
    20    50    51    1
    21    50    49    1
    22    47    49    1
    23    47    43    1
    24    32    33    1
    25    16    51    1
    26    44    45    1
    27    44    43    1
    28    51    18    1
    29    51    26    1
    30    45    12    1
    31    45    24    1
    32    43    11    1
    33    43    42    1
    34    34    33    2
    35    33    35   am
    36    23    42    1
    37    42    10    1
    38    42    41    1
    39     5    35    1
    40    35    36    1
    41     9    41    1
    42    19    36    1
    43    41    22    1
    44    41    40    1
    45     2    39    1
    46    20    37    1
    47    36     6    1
    48    36    37    1
    49    39    40    1
    50    39    38    2
    51    37    38    1
    52    37     7    1
    53    40    21    1
    54    40     8    1
    55    38     1    1
