@<TRIPOS>MOLECULE
15.08265
 54 55 0 0 0
SMALL
GASTEIGER

@<TRIPOS>ATOM
      1 H         -13.3600    5.9710   -3.2250 H       1  UNL1        0.0569
      2 H         -12.7860    4.6750   -0.4990 H       1  UNL1        0.0569
      3 H         -15.6320    4.2820    2.0690 H       1  UNL1        0.2922
      4 H         -14.3630    1.1350    2.7860 H       1  UNL1        0.0691
      5 H         -15.6580    4.1900   -2.1840 H       1  UNL1        0.1490
      6 H         -16.5560    6.6960   -0.9430 H       1  UNL1        0.0465
      7 H         -14.2030    6.5920   -0.3110 H       1  UNL1        0.0322
      8 H         -10.8360    3.8400   -1.6810 H       1  UNL1        0.0307
      9 H         -13.0500    2.3120   -1.5840 H       1  UNL1        0.0268
     10 H         -12.3310    1.8220   -4.4430 H       1  UNL1        0.0274
     11 H         -14.1440    0.6210   -2.9200 H       1  UNL1        0.0427
     12 H         -17.3330    2.4860   -2.1500 H       1  UNL1        0.0391
     13 H         -14.8990    1.5260   -5.7590 H       1  UNL1        0.0914
     14 H         -16.2490   -0.1750   -5.6910 H       1  UNL1        0.2125
     15 H         -13.6780    0.4160   -7.4050 H       1  UNL1        0.0558
     16 H         -12.4810   -1.6560   -8.1180 H       1  UNL1        0.0252
     17 H         -14.6980   -1.6730    0.6930 H       1  UNL1        0.2922
     18 H         -12.4610   -2.2210   -6.4300 H       1  UNL1        0.0252
     19 H         -16.1800    6.3550   -2.6470 H       1  UNL1        0.0465
     20 H         -14.3300    7.6850   -1.6820 H       1  UNL1        0.0322
     21 H         -11.4480    4.3040   -3.2610 H       1  UNL1        0.0307
     22 H         -11.5660    1.7610   -2.3320 H       1  UNL1        0.0268
     23 H         -13.3160    3.2500   -4.2340 H       1  UNL1        0.0274
     24 H         -16.9600    0.8570   -2.5390 H       1  UNL1        0.0391
     25 H         -14.6010   -1.0440   -6.9540 H       1  UNL1        0.0558
     26 H         -11.5500   -0.7830   -6.8770 H       1  UNL1        0.0252
     27 C         -15.2270    2.5280    1.3890 C.ar    1  UNL1        0.1328
     28 C         -14.7890    1.2740    1.7960 C.ar    1  UNL1        0.0235
     29 C         -14.9320    0.2030    0.9380 C.ar    1  UNL1        0.1389
     30 C         -15.4950    0.3750   -0.3340 C.ar    1  UNL1        0.0868
     31 C         -15.9070    1.6550   -0.7970 C.ar    1  UNL1       -0.0028
     32 C         -15.7770    2.7560    0.0990 C.ar    1  UNL1        0.0832
     33 C         -16.1830    4.1820   -0.1570 C.2     1  UNL1        0.2479
     34 O         -16.5610    4.8610    0.7980 O.2     1  UNL1       -0.2701
     35 N         -15.9860    4.7280   -1.3960 N.am    1  UNL1       -0.3109
     36 C         -15.8740    6.1620   -1.6130 C.3     1  UNL1        0.0153
     37 C         -14.4280    6.6350   -1.3840 C.3     1  UNL1       -0.0191
     38 C         -13.4220    5.8040   -2.1520 C.2     1  UNL1       -0.0865
     39 C         -12.6870    4.8400   -1.5720 C.2     1  UNL1       -0.0879
     40 C         -11.7490    3.9070   -2.2850 C.3     1  UNL1       -0.0347
     41 C         -12.3670    2.5070   -2.4180 C.3     1  UNL1       -0.0488
     42 C         -13.0640    2.2880   -3.7730 C.3     1  UNL1       -0.0385
     43 C         -14.3290    1.4020   -3.6600 C.3     1  UNL1        0.0685
     44 C         -15.5140    2.2580   -3.2480 C.2     1  UNL1        0.1455
     45 C         -16.4930    1.7800   -2.1870 C.3     1  UNL1        0.0338
     46 O         -15.7050    3.3580   -3.7830 O.2     1  UNL1       -0.2966
     47 C         -14.6990    0.7570   -5.0030 C.3     1  UNL1        0.1656
     48 O         -15.8630   -0.0350   -4.8110 O.3     1  UNL1       -0.3663
     49 O         -13.6230   -0.0860   -5.3980 O.3     1  UNL1       -0.3511
     50 C         -13.6850   -0.4740   -6.7660 C.3     1  UNL1        0.0478
     51 C         -12.4760   -1.3350   -7.0730 C.3     1  UNL1       -0.0415
     52 CL        -15.6900   -1.0660   -1.2900 Cl      1  UNL1       -0.0794
     53 O         -14.5140   -1.0180    1.3930 O.3     1  UNL1       -0.5052
     54 O         -15.0750    3.5140    2.3340 O.3     1  UNL1       -0.5059
@<TRIPOS>BOND
     1    16    51    1
     2    15    50    1
     3    51    26    1
     4    51    50    1
     5    51    18    1
     6    25    50    1
     7    50    49    1
     8    13    47    1
     9    14    48    1
    10    49    47    1
    11    47    48    1
    12    47    43    1
    13    10    42    1
    14    23    42    1
    15    46    44    2
    16    42    43    1
    17    42    41    1
    18    43    44    1
    19    43    11    1
    20    21    40    1
    21    44    45    1
    22     1    38    1
    23    19    36    1
    24    24    45    1
    25    41    22    1
    26    41    40    1
    27    41     9    1
    28    40     8    1
    29    40    39    1
    30    45    12    1
    31    45    31    1
    32     5    35    1
    33    38    39    2
    34    38    37    1
    35    20    37    1
    36    36    35    1
    37    36    37    1
    38    36     6    1
    39    39     2    1
    40    35    33   am
    41    37     7    1
    42    52    30    1
    43    31    30   ar
    44    31    32   ar
    45    30    29   ar
    46    33    32    1
    47    33    34    2
    48    32    27   ar
    49    17    53    1
    50    29    53    1
    51    29    28   ar
    52    27    28   ar
    53    27    54    1
    54    28     4    1
    55     3    54    1
