@<TRIPOS>MOLECULE
12.58191
 54 55 0 0 0
SMALL
GASTEIGER

@<TRIPOS>ATOM
      1 H         -18.7670    2.1600   -9.0960 H       1  UNL1        0.0569
      2 H         -18.8680    3.4900  -11.8620 H       1  UNL1        0.0569
      3 H         -17.5430    0.0670  -14.9920 H       1  UNL1        0.2922
      4 H         -14.3870   -0.5790  -16.2990 H       1  UNL1        0.0691
      5 H         -16.6050   -0.6220  -11.0620 H       1  UNL1        0.1490
      6 H         -18.5040   -0.5490   -9.8570 H       1  UNL1        0.0465
      7 H         -20.4730    0.8220  -10.3580 H       1  UNL1        0.0322
      8 H         -18.0930    4.5390   -9.0410 H       1  UNL1        0.0307
      9 H         -17.0160    6.3440  -10.7390 H       1  UNL1        0.0268
     10 H         -15.7400    5.3530   -8.9640 H       1  UNL1        0.0274
     11 H         -16.2080    2.8770   -9.5040 H       1  UNL1        0.0427
     12 H         -13.6560    1.1400  -10.6820 H       1  UNL1        0.0391
     13 H         -14.4380    3.8380   -7.8990 H       1  UNL1        0.0914
     14 H         -12.4390    3.9560   -8.5720 H       1  UNL1        0.2125
     15 H         -13.7150    2.2130   -6.3870 H       1  UNL1        0.0558
     16 H         -12.9040   -0.1190   -6.0040 H       1  UNL1        0.0252
     17 H         -11.3930    0.2870  -14.6680 H       1  UNL1        0.2922
     18 H         -13.2320   -0.5080   -7.7100 H       1  UNL1        0.0252
     19 H         -19.1910   -0.9930  -11.4240 H       1  UNL1        0.0465
     20 H         -19.8230    1.3330  -11.8930 H       1  UNL1        0.0322
     21 H         -19.0080    5.4140  -10.2550 H       1  UNL1        0.0307
     22 H         -16.8320    4.9600  -11.7920 H       1  UNL1        0.0268
     23 H         -14.8030    5.4370  -10.4450 H       1  UNL1        0.0274
     24 H         -15.3410    0.8150  -10.5600 H       1  UNL1        0.0391
     25 H         -12.3570    1.8180   -7.4770 H       1  UNL1        0.0558
     26 H         -14.5690   -0.1240   -6.6340 H       1  UNL1        0.0252
     27 C         -15.6630   -0.0760  -14.6400 C.ar    1  UNL1        0.1328
     28 C         -14.4370   -0.2320  -15.2710 C.ar    1  UNL1        0.0235
     29 C         -13.2830    0.0940  -14.5810 C.ar    1  UNL1        0.1389
     30 C         -13.3400    0.5700  -13.2620 C.ar    1  UNL1        0.0868
     31 C         -14.5760    0.7040  -12.5830 C.ar    1  UNL1       -0.0028
     32 C         -15.7540    0.3600  -13.2980 C.ar    1  UNL1        0.0832
     33 C         -17.1360    0.4390  -12.7420 C.2     1  UNL1        0.2479
     34 O         -18.0380    0.8390  -13.4730 O.2     1  UNL1       -0.2701
     35 N         -17.3460   -0.0800  -11.4860 N.am    1  UNL1       -0.3109
     36 C         -18.6630   -0.1990  -10.8840 C.3     1  UNL1        0.0153
     37 C         -19.5330    1.0650  -10.8710 C.3     1  UNL1       -0.0191
     38 C         -18.9300    2.2530  -10.1660 C.2     1  UNL1       -0.0865
     39 C         -18.6760    3.4140  -10.7910 C.2     1  UNL1       -0.0879
     40 C         -18.2070    4.6760  -10.1220 C.3     1  UNL1       -0.0347
     41 C         -16.9260    5.2490  -10.7400 C.3     1  UNL1       -0.0488
     42 C         -15.6410    4.9140   -9.9660 C.3     1  UNL1       -0.0385
     43 C         -15.3140    3.4150   -9.8320 C.3     1  UNL1        0.0685
     44 C         -14.8920    2.8050  -11.1770 C.2     1  UNL1        0.1455
     45 C         -14.6070    1.3110  -11.1920 C.3     1  UNL1        0.0338
     46 O         -14.8080    3.4810  -12.2050 O.2     1  UNL1       -0.2966
     47 C         -14.2180    3.2080   -8.7710 C.3     1  UNL1        0.1656
     48 O         -12.9550    3.5670   -9.2960 O.3     1  UNL1       -0.3663
     49 O         -14.2340    1.8450   -8.3570 O.3     1  UNL1       -0.3511
     50 C         -13.4000    1.5910   -7.2310 C.3     1  UNL1        0.0478
     51 C         -13.5290    0.1250   -6.8670 C.3     1  UNL1       -0.0415
     52 CL        -11.8260    0.9890  -12.5150 Cl      1  UNL1       -0.0794
     53 O         -12.0970   -0.0550  -15.2500 O.3     1  UNL1       -0.5052
     54 O         -16.7650   -0.3710  -15.4060 O.3     1  UNL1       -0.5059
@<TRIPOS>BOND
     1     4    28    1
     2    54     3    1
     3    54    27    1
     4    28    27   ar
     5    28    29   ar
     6    53    17    1
     7    53    29    1
     8    27    32   ar
     9    29    30   ar
    10    34    33    2
    11    32    33    1
    12    32    31   ar
    13    30    31   ar
    14    30    52    1
    15    33    35   am
    16    31    45    1
    17    46    44    2
    18    20    37    1
    19     2    39    1
    20    22    41    1
    21    35     5    1
    22    35    36    1
    23    19    36    1
    24    45    44    1
    25    45    12    1
    26    45    24    1
    27    44    43    1
    28    36    37    1
    29    36     6    1
    30    37     7    1
    31    37    38    1
    32    39    38    2
    33    39    40    1
    34    41     9    1
    35    41    40    1
    36    41    42    1
    37    23    42    1
    38    21    40    1
    39    38     1    1
    40    40     8    1
    41    42    43    1
    42    42    10    1
    43    43    11    1
    44    43    47    1
    45    48    47    1
    46    48    14    1
    47    47    49    1
    48    47    13    1
    49    49    50    1
    50    18    51    1
    51    25    50    1
    52    50    51    1
    53    50    15    1
    54    51    26    1
    55    51    16    1
