@<TRIPOS>MOLECULE
10.42113
 54 55 0 0 0
SMALL
GASTEIGER

@<TRIPOS>ATOM
      1 H         -19.5730    0.3920   -4.4650 H       1  UNL1        0.0569
      2 H         -18.8080   -2.4540   -5.3150 H       1  UNL1        0.0569
      3 H         -19.0840    1.5410    0.2580 H       1  UNL1        0.2922
      4 H         -18.9200    5.0090   -0.0930 H       1  UNL1        0.0691
      5 H         -19.6850    1.0260   -1.8190 H       1  UNL1        0.1490
      6 H         -19.8520   -1.3740   -1.0040 H       1  UNL1        0.0465
      7 H         -21.0950   -0.8780   -3.0240 H       1  UNL1        0.0322
      8 H         -18.4980    0.3690   -6.6080 H       1  UNL1        0.0307
      9 H         -16.7910   -1.1330   -7.9920 H       1  UNL1        0.0268
     10 H         -16.0880    0.9550   -6.9130 H       1  UNL1        0.0274
     11 H         -14.4040    0.5340   -5.0050 H       1  UNL1        0.0427
     12 H         -14.9850    1.4030   -2.5370 H       1  UNL1        0.0391
     13 H         -16.5070   -1.3600   -3.8590 H       1  UNL1        0.0914
     14 H         -15.3750   -0.8760   -2.2050 H       1  UNL1        0.2125
     15 H         -16.1050   -3.6430   -4.0280 H       1  UNL1        0.0558
     16 H         -14.5130   -5.4930   -4.5540 H       1  UNL1        0.0252
     17 H         -16.5980    6.7030   -2.1190 H       1  UNL1        0.2922
     18 H         -13.3490   -4.3060   -5.1890 H       1  UNL1        0.0252
     19 H         -18.3580   -1.6610   -1.9060 H       1  UNL1        0.0465
     20 H         -20.2320   -2.3860   -3.2830 H       1  UNL1        0.0322
     21 H         -18.9450   -1.1000   -7.4420 H       1  UNL1        0.0307
     22 H         -16.6290   -2.0540   -6.5290 H       1  UNL1        0.0268
     23 H         -14.8970   -0.3140   -6.9920 H       1  UNL1        0.0274
     24 H         -14.7810    2.6820   -3.6810 H       1  UNL1        0.0391
     25 H         -14.5460   -3.4040   -3.1920 H       1  UNL1        0.0558
     26 H         -14.8850   -4.5450   -6.0130 H       1  UNL1        0.0252
     27 C         -18.3300    3.0310   -0.7110 C.ar    1  UNL1        0.1328
     28 C         -18.2550    4.4180   -0.7170 C.ar    1  UNL1        0.0235
     29 C         -17.3170    5.0420   -1.5260 C.ar    1  UNL1        0.1389
     30 C         -16.4390    4.2970   -2.3290 C.ar    1  UNL1        0.0868
     31 C         -16.4930    2.8880   -2.3380 C.ar    1  UNL1       -0.0028
     32 C         -17.4770    2.2610   -1.5240 C.ar    1  UNL1        0.0832
     33 C         -17.6460    0.7810   -1.5420 C.2     1  UNL1        0.2479
     34 O         -16.6820    0.0320   -1.4440 O.2     1  UNL1       -0.2701
     35 N         -18.9440    0.3430   -1.6870 N.am    1  UNL1       -0.3109
     36 C         -19.2730   -1.0600   -1.8790 C.3     1  UNL1        0.0153
     37 C         -20.0930   -1.3070   -3.1510 C.3     1  UNL1       -0.0191
     38 C         -19.4870   -0.6920   -4.3810 C.2     1  UNL1       -0.0865
     39 C         -18.8850   -1.3700   -5.3690 C.2     1  UNL1       -0.0879
     40 C         -18.3420   -0.7150   -6.6090 C.3     1  UNL1       -0.0347
     41 C         -16.8780   -1.0550   -6.8980 C.3     1  UNL1       -0.0488
     42 C         -15.8220   -0.0170   -6.4760 C.3     1  UNL1       -0.0385
     43 C         -15.4410    0.1650   -4.9870 C.3     1  UNL1        0.0685
     44 C         -16.2310    1.2980   -4.3240 C.2     1  UNL1        0.1455
     45 C         -15.5430    2.0650   -3.1980 C.3     1  UNL1        0.0338
     46 O         -17.3450    1.6430   -4.7250 O.2     1  UNL1       -0.2966
     47 C         -15.4780   -1.1020   -4.1280 C.3     1  UNL1        0.1656
     48 O         -14.7260   -0.8830   -2.9420 O.3     1  UNL1       -0.3663
     49 O         -14.8800   -2.1840   -4.8380 O.3     1  UNL1       -0.3511
     50 C         -15.0400   -3.4310   -4.1690 C.3     1  UNL1        0.0478
     51 C         -14.4120   -4.5120   -5.0260 C.3     1  UNL1       -0.0415
     52 CL        -15.3070    5.1850   -3.2980 Cl      1  UNL1       -0.0794
     53 O         -17.2890    6.4110   -1.4950 O.3     1  UNL1       -0.5052
     54 O         -19.2650    2.4910    0.1330 O.3     1  UNL1       -0.5059
@<TRIPOS>BOND
     1     9    41    1
     2    21    40    1
     3    23    42    1
     4    10    42    1
     5    41    40    1
     6    41    22    1
     7    41    42    1
     8    40     8    1
     9    40    39    1
    10    42    43    1
    11    26    51    1
    12    39     2    1
    13    39    38    2
    14    18    51    1
    15    51    16    1
    16    51    50    1
    17    11    43    1
    18    43    44    1
    19    43    47    1
    20    49    50    1
    21    49    47    1
    22    46    44    2
    23     1    38    1
    24    38    37    1
    25    44    45    1
    26    50    15    1
    27    50    25    1
    28    47    13    1
    29    47    48    1
    30    24    45    1
    31    52    30    1
    32    20    37    1
    33    45    12    1
    34    45    31    1
    35    37     7    1
    36    37    36    1
    37    48    14    1
    38    31    30   ar
    39    31    32   ar
    40    30    29   ar
    41    17    53    1
    42    19    36    1
    43    36    35    1
    44    36     6    1
    45     5    35    1
    46    35    33   am
    47    33    32    1
    48    33    34    2
    49    29    53    1
    50    29    28   ar
    51    32    27   ar
    52    28    27   ar
    53    28     4    1
    54    27    54    1
    55    54     3    1
