@<TRIPOS>MOLECULE
18.17870
 54 55 0 0 0
SMALL
GASTEIGER

@<TRIPOS>ATOM
      1 H         -15.5510    0.2060   -7.7490 H       1  UNL1        0.0569
      2 H         -14.1380    2.9080   -8.1380 H       1  UNL1        0.0569
      3 H         -17.5840   -1.5950  -12.1110 H       1  UNL1        0.2922
      4 H         -14.9980   -3.0420  -13.9190 H       1  UNL1        0.0691
      5 H         -15.5500    1.6870  -10.4560 H       1  UNL1        0.1490
      6 H         -17.9020    0.5790   -9.2530 H       1  UNL1        0.0465
      7 H         -17.3870    1.9990   -7.3570 H       1  UNL1        0.0322
      8 H         -13.0920    0.0790   -7.4920 H       1  UNL1        0.0307
      9 H         -13.1960    0.4200   -9.9910 H       1  UNL1        0.0268
     10 H         -10.7920    2.1570   -9.9660 H       1  UNL1        0.0274
     11 H         -12.1520    1.3310  -11.9760 H       1  UNL1        0.0427
     12 H         -14.1310    2.8170  -13.7410 H       1  UNL1        0.0391
     13 H         -11.9700    3.6020  -13.2300 H       1  UNL1        0.0914
     14 H          -9.8340    3.3090  -13.2700 H       1  UNL1        0.2125
     15 H         -11.5150    5.8720  -13.0650 H       1  UNL1        0.0558
     16 H         -10.4950    7.7510  -11.7750 H       1  UNL1        0.0252
     17 H         -12.3800   -1.2330  -15.4220 H       1  UNL1        0.2922
     18 H         -10.2600    6.6640  -10.3850 H       1  UNL1        0.0252
     19 H         -18.1670    2.2380   -9.8080 H       1  UNL1        0.0465
     20 H         -16.4630    3.1160   -8.3560 H       1  UNL1        0.0322
     21 H         -12.1990    1.5870   -7.3250 H       1  UNL1        0.0307
     22 H         -11.5870    0.1520   -9.3510 H       1  UNL1        0.0268
     23 H         -12.2050    3.0560   -9.4630 H       1  UNL1        0.0274
     24 H         -15.5740    2.7250  -12.8110 H       1  UNL1        0.0391
     25 H          -9.8590    5.4630  -12.5380 H       1  UNL1        0.0558
     26 H         -11.8910    7.0700  -10.9060 H       1  UNL1        0.0252
     27 C         -15.8370   -1.3550  -12.8770 C.ar    1  UNL1        0.1328
     28 C         -14.9100   -1.9820  -13.7000 C.ar    1  UNL1        0.0235
     29 C         -13.8970   -1.2290  -14.2620 C.ar    1  UNL1        0.1389
     30 C         -13.7950    0.1450  -14.0030 C.ar    1  UNL1        0.0868
     31 C         -14.7010    0.8020  -13.1300 C.ar    1  UNL1       -0.0028
     32 C         -15.7410    0.0220  -12.5560 C.ar    1  UNL1        0.0832
     33 C         -16.8220    0.5240  -11.6520 C.2     1  UNL1        0.2479
     34 O         -17.9620    0.0950  -11.8230 O.2     1  UNL1       -0.2701
     35 N         -16.4800    1.3090  -10.5820 N.am    1  UNL1       -0.3109
     36 C         -17.4010    1.5290   -9.4740 C.3     1  UNL1        0.0153
     37 C         -16.7010    2.0550   -8.2090 C.3     1  UNL1       -0.0191
     38 C         -15.4440    1.2780   -7.8990 C.2     1  UNL1       -0.0865
     39 C         -14.2240    1.8370   -7.9580 C.2     1  UNL1       -0.0879
     40 C         -12.9360    1.0650   -7.9450 C.3     1  UNL1       -0.0347
     41 C         -12.4100    0.8780   -9.3770 C.3     1  UNL1       -0.0488
     42 C         -11.8870    2.1740  -10.0290 C.3     1  UNL1       -0.0385
     43 C         -12.3130    2.3090  -11.5130 C.3     1  UNL1        0.0685
     44 C         -13.7930    2.6660  -11.6350 C.2     1  UNL1        0.1455
     45 C         -14.5690    2.2900  -12.8880 C.3     1  UNL1        0.0338
     46 O         -14.3930    3.2640  -10.7370 O.2     1  UNL1       -0.2966
     47 C         -11.4960    3.3690  -12.2700 C.3     1  UNL1        0.1656
     48 O         -10.2110    2.8190  -12.5230 O.3     1  UNL1       -0.3663
     49 O         -11.3860    4.5440  -11.4830 O.3     1  UNL1       -0.3511
     50 C         -10.8790    5.6650  -12.1970 C.3     1  UNL1        0.0478
     51 C         -10.8780    6.8620  -11.2670 C.3     1  UNL1       -0.0415
     52 CL        -12.5330    1.0040  -14.8360 Cl      1  UNL1       -0.0794
     53 O         -13.0250   -1.8840  -15.0890 O.3     1  UNL1       -0.5052
     54 O         -16.8430   -2.1670  -12.4140 O.3     1  UNL1       -0.5059
@<TRIPOS>BOND
     1    17    53    1
     2    53    29    1
     3    52    30    1
     4    29    30   ar
     5    29    28   ar
     6    30    31   ar
     7     4    28    1
     8    12    45    1
     9    28    27   ar
    10    14    48    1
    11    13    47    1
    12    31    45    1
    13    31    32   ar
    14    15    50    1
    15    45    24    1
    16    45    44    1
    17    27    32   ar
    18    27    54    1
    19    32    33    1
    20    25    50    1
    21    48    47    1
    22    54     3    1
    23    47    43    1
    24    47    49    1
    25    50    49    1
    26    50    51    1
    27    11    43    1
    28    34    33    2
    29    16    51    1
    30    33    35   am
    31    44    43    1
    32    44    46    2
    33    43    42    1
    34    51    26    1
    35    51    18    1
    36    35     5    1
    37    35    36    1
    38    42    10    1
    39    42    23    1
    40    42    41    1
    41     9    41    1
    42    19    36    1
    43    36     6    1
    44    36    37    1
    45    41    22    1
    46    41    40    1
    47    20    37    1
    48    37    38    1
    49    37     7    1
    50     2    39    1
    51    39    40    1
    52    39    38    2
    53    40     8    1
    54    40    21    1
    55    38     1    1
