@<TRIPOS>MOLECULE
8.07858
 54 55 0 0 0
SMALL
GASTEIGER

@<TRIPOS>ATOM
      1 H         -11.4100   -2.6190    2.1130 H       1  UNL1        0.0569
      2 H         -13.1360   -5.1350    1.7800 H       1  UNL1        0.0569
      3 H          -6.4710   -4.0620    5.7720 H       1  UNL1        0.2922
      4 H          -4.2950   -1.4300    5.0190 H       1  UNL1        0.0691
      5 H          -9.3590   -2.8730    3.1490 H       1  UNL1        0.1490
      6 H         -10.1390   -4.9320    5.0210 H       1  UNL1        0.0465
      7 H         -11.7540   -3.1310    4.4570 H       1  UNL1        0.0322
      8 H         -13.8170   -3.3710   -0.0610 H       1  UNL1        0.0307
      9 H         -11.7050   -1.9630    0.0590 H       1  UNL1        0.0268
     10 H         -10.4410   -4.1280   -1.6540 H       1  UNL1        0.0274
     11 H          -9.6990   -1.5080   -1.0460 H       1  UNL1        0.0427
     12 H          -7.9470   -4.2290    1.2750 H       1  UNL1        0.0391
     13 H          -7.3700   -2.1140   -1.7880 H       1  UNL1        0.0914
     14 H          -8.1510   -2.2350   -3.7700 H       1  UNL1        0.2125
     15 H          -5.9040   -3.7800   -2.5080 H       1  UNL1        0.0558
     16 H          -5.5130   -6.1610   -3.1480 H       1  UNL1        0.0252
     17 H          -3.9500   -0.0330    1.8030 H       1  UNL1        0.2922
     18 H          -7.1880   -6.5550   -2.6930 H       1  UNL1        0.0252
     19 H         -10.1810   -5.5400    3.3640 H       1  UNL1        0.0465
     20 H         -12.4190   -4.7220    4.1070 H       1  UNL1        0.0322
     21 H         -12.8380   -4.7400   -0.5670 H       1  UNL1        0.0307
     22 H         -12.1230   -2.5350   -1.5390 H       1  UNL1        0.0268
     23 H         -10.1990   -4.2430    0.0790 H       1  UNL1        0.0274
     24 H          -6.8180   -3.4600    0.1980 H       1  UNL1        0.0391
     25 H          -7.0610   -4.3030   -3.7640 H       1  UNL1        0.0558
     26 H          -6.0490   -6.0400   -1.4550 H       1  UNL1        0.0252
     27 C          -5.9310   -2.7280    4.4990 C.ar    1  UNL1        0.1328
     28 C          -4.9630   -1.7700    4.2330 C.ar    1  UNL1        0.0235
     29 C          -4.8570   -1.2580    2.9490 C.ar    1  UNL1        0.1389
     30 C          -5.6920   -1.7160    1.9180 C.ar    1  UNL1        0.0868
     31 C          -6.6770   -2.6980    2.1640 C.ar    1  UNL1       -0.0028
     32 C          -6.8180   -3.1590    3.4940 C.ar    1  UNL1        0.0832
     33 C          -7.8730   -4.1100    3.9100 C.2     1  UNL1        0.2479
     34 O          -7.5520   -5.0920    4.5710 O.2     1  UNL1       -0.2701
     35 N          -9.1670   -3.7610    3.6110 N.am    1  UNL1       -0.3109
     36 C         -10.2710   -4.6330    3.9740 C.3     1  UNL1        0.0153
     37 C         -11.6540   -4.0010    3.7970 C.3     1  UNL1       -0.0191
     38 C         -11.8940   -3.5530    2.3840 C.2     1  UNL1       -0.0865
     39 C         -12.6340   -4.2160    1.4810 C.2     1  UNL1       -0.0879
     40 C         -12.8240   -3.8240    0.0360 C.3     1  UNL1       -0.0347
     41 C         -11.7750   -2.8700   -0.5520 C.3     1  UNL1       -0.0488
     42 C         -10.3970   -3.5340   -0.7320 C.3     1  UNL1       -0.0385
     43 C          -9.2650   -2.4890   -0.8040 C.3     1  UNL1        0.0685
     44 C          -8.6270   -2.3250    0.5790 C.2     1  UNL1        0.1455
     45 C          -7.5070   -3.2590    1.0200 C.3     1  UNL1        0.0338
     46 O          -9.1130   -1.5210    1.3870 O.2     1  UNL1       -0.2966
     47 C          -8.2360   -2.7760   -1.9060 C.3     1  UNL1        0.1656
     48 O          -8.8540   -2.4990   -3.1560 O.3     1  UNL1       -0.3663
     49 O          -7.8350   -4.1380   -1.8490 O.3     1  UNL1       -0.3511
     50 C          -6.7520   -4.4400   -2.7230 C.3     1  UNL1        0.0478
     51 C          -6.3460   -5.8830   -2.4970 C.3     1  UNL1       -0.0415
     52 CL         -5.4560   -1.0480    0.3330 Cl      1  UNL1       -0.0794
     53 O          -3.8910   -0.3110    2.7350 O.3     1  UNL1       -0.5052
     54 O          -5.9600   -3.2220    5.7780 O.3     1  UNL1       -0.5059
@<TRIPOS>BOND
     1    14    48    1
     2    25    50    1
     3    48    47    1
     4    16    51    1
     5    50    15    1
     6    50    51    1
     7    50    49    1
     8    18    51    1
     9    51    26    1
    10    47    49    1
    11    47    13    1
    12    47    43    1
    13    10    42    1
    14    22    41    1
    15    11    43    1
    16    43    42    1
    17    43    44    1
    18    42    41    1
    19    42    23    1
    20    21    40    1
    21    41    40    1
    22    41     9    1
    23     8    40    1
    24    40    39    1
    25    24    45    1
    26    52    30    1
    27    44    45    1
    28    44    46    2
    29    45    12    1
    30    45    31    1
    31    39     2    1
    32    39    38    2
    33    17    53    1
    34    30    31   ar
    35    30    29   ar
    36     1    38    1
    37    31    32   ar
    38    38    37    1
    39    53    29    1
    40    29    28   ar
    41     5    35    1
    42    19    36    1
    43    32    33    1
    44    32    27   ar
    45    35    33   am
    46    35    36    1
    47    37    36    1
    48    37    20    1
    49    37     7    1
    50    33    34    2
    51    36     6    1
    52    28    27   ar
    53    28     4    1
    54    27    54    1
    55     3    54    1
