@<TRIPOS>MOLECULE
13.89135
 54 55 0 0 0
SMALL
GASTEIGER

@<TRIPOS>ATOM
      1 H         -15.3840    0.1380   -7.5290 H       1  UNL1        0.0569
      2 H         -14.1640    2.9480   -7.7100 H       1  UNL1        0.0569
      3 H         -20.9920    3.5600   -5.7510 H       1  UNL1        0.2922
      4 H         -20.7330    6.1350   -3.4020 H       1  UNL1        0.0691
      5 H         -16.9740    3.0630   -6.2090 H       1  UNL1        0.1490
      6 H         -18.6430    2.0050   -8.2270 H       1  UNL1        0.0465
      7 H         -16.3290    2.8580   -8.6920 H       1  UNL1        0.0322
      8 H         -12.5380    2.2360   -6.2090 H       1  UNL1        0.0307
      9 H         -12.3250    0.1400   -5.0780 H       1  UNL1        0.0268
     10 H         -14.3910   -0.2580   -3.8880 H       1  UNL1        0.0274
     11 H         -13.4300    2.5050   -4.2630 H       1  UNL1        0.0427
     12 H         -17.1870    1.4410   -3.9180 H       1  UNL1        0.0391
     13 H         -14.7640    1.1770   -1.8640 H       1  UNL1        0.0914
     14 H         -13.9670    2.9060   -0.8180 H       1  UNL1        0.2125
     15 H         -12.0160   -0.4150   -0.9770 H       1  UNL1        0.0558
     16 H         -10.9720    1.1880    0.5940 H       1  UNL1        0.0252
     17 H         -18.1960    6.3130   -0.9640 H       1  UNL1        0.2922
     18 H         -11.6340    2.5520   -0.3280 H       1  UNL1        0.0252
     19 H         -17.9720    0.6300   -7.3450 H       1  UNL1        0.0465
     20 H         -16.6500    1.2810   -9.4090 H       1  UNL1        0.0322
     21 H         -12.2900    1.0040   -7.4160 H       1  UNL1        0.0307
     22 H         -13.4850   -0.6550   -6.1220 H       1  UNL1        0.0268
     23 H         -15.3480    0.5060   -5.1160 H       1  UNL1        0.0274
     24 H         -16.6440    2.0640   -2.3920 H       1  UNL1        0.0391
     25 H         -13.2630    0.6110   -0.2610 H       1  UNL1        0.0558
     26 H         -10.4330    1.5060   -1.0710 H       1  UNL1        0.0252
     27 C         -19.9140    4.4200   -4.4140 C.ar    1  UNL1        0.1328
     28 C         -19.9360    5.3980   -3.4290 C.ar    1  UNL1        0.0235
     29 C         -18.9280    5.4140   -2.4770 C.ar    1  UNL1        0.1389
     30 C         -17.9130    4.4450   -2.4820 C.ar    1  UNL1        0.0868
     31 C         -17.8770    3.4380   -3.4700 C.ar    1  UNL1       -0.0028
     32 C         -18.8710    3.4750   -4.4750 C.ar    1  UNL1        0.0832
     33 C         -18.9050    2.5370   -5.6210 C.2     1  UNL1        0.2479
     34 O         -19.9580    1.9590   -5.8720 O.2     1  UNL1       -0.2701
     35 N         -17.7790    2.4650   -6.4070 N.am    1  UNL1       -0.3109
     36 C         -17.7880    1.6740   -7.6250 C.3     1  UNL1        0.0153
     37 C         -16.5080    1.8020   -8.4550 C.3     1  UNL1       -0.0191
     38 C         -15.3160    1.1970   -7.7670 C.2     1  UNL1       -0.0865
     39 C         -14.2160    1.8930   -7.4410 C.2     1  UNL1       -0.0879
     40 C         -13.0220    1.3770   -6.6890 C.3     1  UNL1       -0.0347
     41 C         -13.2650    0.2970   -5.6230 C.3     1  UNL1       -0.0488
     42 C         -14.3830    0.5740   -4.6030 C.3     1  UNL1       -0.0385
     43 C         -14.2600    1.9170   -3.8540 C.3     1  UNL1        0.0685
     44 C         -15.5130    2.7600   -4.0990 C.2     1  UNL1        0.1455
     45 C         -16.8190    2.3510   -3.4320 C.3     1  UNL1        0.0338
     46 O         -15.5050    3.6600   -4.9480 O.2     1  UNL1       -0.2966
     47 C         -13.9580    1.7280   -2.3610 C.3     1  UNL1        0.1656
     48 O         -13.8170    3.0060   -1.7710 O.3     1  UNL1       -0.3663
     49 O         -12.7420    0.9940   -2.2550 O.3     1  UNL1       -0.3511
     50 C         -12.3940    0.6120   -0.9280 C.3     1  UNL1        0.0478
     51 C         -11.2960    1.5150   -0.3980 C.3     1  UNL1       -0.0415
     52 CL        -16.7310    4.5170   -1.2140 Cl      1  UNL1       -0.0794
     53 O         -18.9870    6.4010   -1.5280 O.3     1  UNL1       -0.5052
     54 O         -20.9610    4.4320   -5.3000 O.3     1  UNL1       -0.5059
@<TRIPOS>BOND
     1    20    37    1
     2     7    37    1
     3    37    38    1
     4    37    36    1
     5     6    36    1
     6    38     1    1
     7    38    39    2
     8     2    39    1
     9    36    19    1
    10    36    35    1
    11    39    40    1
    12    21    40    1
    13    40     8    1
    14    40    41    1
    15    35     5    1
    16    35    33   am
    17    22    41    1
    18    34    33    2
    19     3    54    1
    20    41     9    1
    21    41    42    1
    22    33    32    1
    23    54    27    1
    24    23    42    1
    25    46    44    2
    26    42    10    1
    27    42    43    1
    28    32    27   ar
    29    32    31   ar
    30    27    28   ar
    31    11    43    1
    32    44    43    1
    33    44    45    1
    34    12    45    1
    35    43    47    1
    36    31    45    1
    37    31    30   ar
    38    45    24    1
    39    28     4    1
    40    28    29   ar
    41    30    29   ar
    42    30    52    1
    43    29    53    1
    44    47    49    1
    45    47    13    1
    46    47    48    1
    47    49    50    1
    48    48    14    1
    49    53    17    1
    50    26    51    1
    51    15    50    1
    52    50    51    1
    53    50    25    1
    54    51    18    1
    55    51    16    1
