@<TRIPOS>MOLECULE
257.80371
 124 126 0 0 0
SMALL
GASTEIGER

@<TRIPOS>ATOM
      1 H          48.4790   30.3230  273.0440 H       1  UNL1        0.0524
      2 H          39.6970   29.0070  268.1330 H       1  UNL1        0.0391
      3 H          42.8600   26.3290  268.9150 H       1  UNL1        0.0391
      4 H          49.9930   29.9050  273.8490 H       1  UNL1        0.0524
      5 H          40.0230   27.6640  267.0530 H       1  UNL1        0.0391
      6 H          41.1890   25.7470  269.0800 H       1  UNL1        0.0391
      7 H          48.4380   29.2090  274.4140 H       1  UNL1        0.0524
      8 H          39.2970   27.3520  268.6410 H       1  UNL1        0.0391
      9 H          41.8570   26.1500  267.4920 H       1  UNL1        0.0391
     10 H          45.8020   30.0280  273.4760 H       1  UNL1        0.0629
     11 H          41.8550   31.0440  277.3210 H       1  UNL1        0.0639
     12 H          47.0140   32.8490  275.9020 H       1  UNL1        0.0621
     13 H          49.3070   32.5080  277.8940 H       1  UNL1        0.0648
     14 H          43.5300   28.0580  276.8410 H       1  UNL1        0.0436
     15 H          43.2240   29.1840  274.8050 H       1  UNL1        0.0349
     16 H          44.3810   30.5800  276.4180 H       1  UNL1        0.0608
     17 H          45.8750   27.6770  274.4360 H       1  UNL1        0.0234
     18 H          44.4870   27.4260  273.3880 H       1  UNL1        0.0234
     19 H          44.3490   27.0180  275.0690 H       1  UNL1        0.0234
     20 H          42.3510   31.2770  273.8640 H       1  UNL1        0.0297
     21 H          42.6820   32.1770  272.3970 H       1  UNL1        0.0297
     22 H          42.7960   32.5060  276.0750 H       1  UNL1        0.0429
     23 H          42.2890   34.1800  276.1150 H       1  UNL1        0.0429
     24 C          43.9560   29.2180  278.5250 C.2     1  UNL1        0.3128
     25 C          44.4250   28.5650  277.2290 C.3     1  UNL1        0.0801
     26 C          44.8570   29.6300  276.1560 C.3     1  UNL1        0.0793
     27 C          44.3160   29.1970  274.7210 C.3     1  UNL1        0.0124
     28 C          44.7040   30.1020  273.4880 C.3     1  UNL1        0.0950
     29 C          44.4400   31.6550  273.5550 C.3     1  UNL1        0.0900
     30 C          42.9540   32.0860  273.4550 C.3     1  UNL1       -0.0181
     31 C          42.5800   33.4220  274.1510 C.3     1  UNL1       -0.0284
     32 C          42.1080   33.2210  275.6150 C.3     1  UNL1        0.0016
     33 N          40.6960   32.8430  275.8850 N.3     1  UNL1       -0.2999
     34 C          40.4230   32.6810  277.3550 C.3     1  UNL1        0.0361
     35 C          41.4140   31.7000  278.0770 C.3     1  UNL1        0.1022
     36 C          40.8170   30.7560  279.1720 C.3     1  UNL1        0.1270
     37 C          41.9780   29.8490  279.7330 C.3     1  UNL1        0.1335
     38 C          41.5090   28.7980  280.7580 C.3     1  UNL1       -0.0157
     39 C          42.6670   28.0790  281.4390 C.3     1  UNL1       -0.0618
     40 C          45.4350   27.4600  277.5660 C.3     1  UNL1       -0.0499
     41 C          44.7830   27.7540  274.3880 C.3     1  UNL1       -0.0576
     42 C          45.2250   32.3490  272.4240 C.3     1  UNL1       -0.0336
     43 C          41.5880   34.2500  273.3280 C.3     1  UNL1       -0.0612
     44 C          40.2310   31.6570  275.1670 C.3     1  UNL1       -0.0124
     45 C          40.3260   34.0640  278.0170 C.3     1  UNL1       -0.0470
     46 C          39.6660   29.9080  278.6040 C.3     1  UNL1       -0.0301
     47 O          44.6930   29.6650  279.3920 O.2     1  UNL1       -0.2504
     48 O          44.9720   32.1690  274.7710 O.3     1  UNL1       -0.3863
     49 O          42.5060   32.4390  278.6490 O.3     1  UNL1       -0.3873
     50 O          40.3010   31.5830  280.2290 O.3     1  UNL1       -0.3826
     51 O          42.5940   29.1600  278.6150 O.3     1  UNL1       -0.4581
     52 C          42.9840   29.3370  271.8460 C.3     1  UNL1        0.1871
     53 C          42.9330   28.7000  270.4340 C.3     1  UNL1        0.1214
     54 C          41.4630   28.3920  270.0420 C.3     1  UNL1        0.0429
     55 C          40.7780   27.5810  271.1480 C.3     1  UNL1       -0.0085
     56 C          40.9150   28.3240  272.4770 C.3     1  UNL1        0.0605
     57 C          40.3030   27.5250  273.6190 C.3     1  UNL1       -0.0385
     58 C          40.0320   27.9640  268.1070 C.3     1  UNL1       -0.0127
     59 C          41.8370   26.4500  268.5460 C.3     1  UNL1       -0.0127
     60 O          44.3570   29.5090  272.2160 O.3     1  UNL1       -0.3423
     61 O          43.4830   29.5820  269.4400 O.3     1  UNL1       -0.3852
     62 N          41.3820   27.8360  268.6640 N.3     1  UNL1       -0.3027
     63 O          42.2930   28.5130  272.7820 O.3     1  UNL1       -0.3457
     64 C          46.9680   30.3280  277.1830 C.3     1  UNL1        0.1627
     65 C          48.4660   30.0500  277.0290 C.3     1  UNL1        0.0298
     66 C          49.2040   31.1190  276.2170 C.3     1  UNL1        0.0991
     67 C          48.9000   32.4870  276.8750 C.3     1  UNL1        0.1098
     68 C          47.3810   32.7150  276.9190 C.3     1  UNL1        0.0874
     69 C          47.0360   34.0000  277.6710 C.3     1  UNL1       -0.0361
     70 C          50.7200   30.8620  276.2420 C.3     1  UNL1       -0.0331
     71 C          48.9310   30.0980  274.0140 C.3     1  UNL1        0.0373
     72 O          46.2740   29.8590  276.0220 O.3     1  UNL1       -0.3468
     73 O          48.7400   31.2290  274.8520 O.3     1  UNL1       -0.3740
     74 O          49.5360   33.5330  276.1290 O.3     1  UNL1       -0.3864
     75 O          46.6710   31.6600  277.5620 O.3     1  UNL1       -0.3456
     76 H          43.4860   34.0410  274.2000 H       1  UNL1        0.0311
     77 H          39.4080   32.2800  277.4240 H       1  UNL1        0.0486
     78 H          42.6930   30.5050  280.2440 H       1  UNL1        0.0764
     79 H          40.8990   28.0320  280.2650 H       1  UNL1        0.0299
     80 H          40.8960   29.2710  281.5320 H       1  UNL1        0.0299
     81 H          43.2500   27.4920  280.7230 H       1  UNL1        0.0231
     82 H          43.3350   28.7910  281.9340 H       1  UNL1        0.0231
     83 H          42.2850   27.3890  282.1990 H       1  UNL1        0.0231
     84 H          46.0340   27.1600  276.7040 H       1  UNL1        0.0238
     85 H          46.1210   27.7330  278.3720 H       1  UNL1        0.0238
     86 H          44.8980   26.5720  277.9200 H       1  UNL1        0.0238
     87 H          46.2970   32.1360  272.5060 H       1  UNL1        0.0258
     88 H          45.1270   33.4380  272.4880 H       1  UNL1        0.0258
     89 H          44.8840   32.0300  271.4340 H       1  UNL1        0.0258
     90 H          41.3300   35.1770  273.8510 H       1  UNL1        0.0233
     91 H          40.6620   33.7100  273.1150 H       1  UNL1        0.0233
     92 H          42.0330   34.5270  272.3660 H       1  UNL1        0.0233
     93 H          40.2330   31.8080  274.0850 H       1  UNL1        0.0391
     94 H          39.1850   31.4420  275.4140 H       1  UNL1        0.0391
     95 H          40.8160   30.7610  275.3980 H       1  UNL1        0.0391
     96 H          39.9810   33.9720  279.0520 H       1  UNL1        0.0246
     97 H          41.2790   34.6000  278.0300 H       1  UNL1        0.0246
     98 H          39.5990   34.6920  277.4900 H       1  UNL1        0.0246
     99 H          39.2560   29.2320  279.3620 H       1  UNL1        0.0259
    100 H          38.8140   30.5230  278.3040 H       1  UNL1        0.0259
    101 H          39.9890   29.3120  277.7450 H       1  UNL1        0.0259
    102 H          45.8040   31.6880  274.9460 H       1  UNL1        0.2103
    103 H          42.1610   32.8400  279.4700 H       1  UNL1        0.2100
    104 H          39.7860   31.0240  280.8360 H       1  UNL1        0.2104
    105 H          42.5010   30.3090  271.7780 H       1  UNL1        0.0937
    106 H          43.5420   27.7890  270.4370 H       1  UNL1        0.0660
    107 H          40.9660   29.3730  269.9950 H       1  UNL1        0.0490
    108 H          41.2550   26.5970  271.2360 H       1  UNL1        0.0306
    109 H          39.7180   27.4220  270.9210 H       1  UNL1        0.0306
    110 H          40.4210   29.3020  272.4290 H       1  UNL1        0.0595
    111 H          39.2360   27.3490  273.4560 H       1  UNL1        0.0255
    112 H          40.8060   26.5580  273.7370 H       1  UNL1        0.0255
    113 H          40.4290   28.0590  274.5680 H       1  UNL1        0.0255
    114 H          43.1660   29.2170  268.5890 H       1  UNL1        0.2101
    115 H          46.6660   29.7200  278.0300 H       1  UNL1        0.0911
    116 H          48.6110   29.0540  276.5950 H       1  UNL1        0.0343
    117 H          48.9080   30.0270  278.0350 H       1  UNL1        0.0343
    118 H          47.3640   33.9410  278.7140 H       1  UNL1        0.0255
    119 H          47.4960   34.8780  277.2070 H       1  UNL1        0.0255
    120 H          45.9510   34.1490  277.6910 H       1  UNL1        0.0255
    121 H          51.1300   30.9780  277.2510 H       1  UNL1        0.0258
    122 H          50.9560   29.8450  275.9100 H       1  UNL1        0.0258
    123 H          51.2500   31.5450  275.5700 H       1  UNL1        0.0258
    124 H          49.3240   33.3430  275.1930 H       1  UNL1        0.2100
@<TRIPOS>BOND
     1     5    58    1
     2     9    59    1
     3    58     2    1
     4    58     8    1
     5    58    62    1
     6    59    62    1
     7    59     3    1
     8    59     6    1
     9   114    61    1
    10    62    54    1
    11    61    53    1
    12   107    54    1
    13    54    53    1
    14    54    55    1
    15    53   106    1
    16    53    52    1
    17   109    55    1
    18    55   108    1
    19    55    56    1
    20    89    42    1
    21   105    52    1
    22    52    60    1
    23    52    63    1
    24    60    28    1
    25    92    43    1
    26    21    30    1
    27    42    88    1
    28    42    87    1
    29    42    29    1
    30   110    56    1
    31    56    63    1
    32    56    57    1
    33     1    71    1
    34    91    43    1
    35    43    90    1
    36    43    31    1
    37    18    41    1
    38    30    29    1
    39    30    20    1
    40    30    31    1
    41   111    57    1
    42    10    28    1
    43    28    29    1
    44    28    27    1
    45    29    48    1
    46    57   112    1
    47    57   113    1
    48     4    71    1
    49    71     7    1
    50    71    73    1
    51    93    44    1
    52    31    76    1
    53    31    32    1
    54    41    17    1
    55    41    27    1
    56    41    19    1
    57    27    15    1
    58    27    26    1
    59    48   102    1
    60    73    66    1
    61    44    95    1
    62    44    94    1
    63    44    33    1
    64   124    74    1
    65   123    70    1
    66    32    33    1
    67    32    22    1
    68    32    23    1
    69    33    34    1
    70    12    68    1
    71   122    70    1
    72    72    26    1
    73    72    64    1
    74    74    67    1
    75    26    16    1
    76    26    25    1
    77    66    70    1
    78    66    67    1
    79    66    65    1
    80    70   121    1
    81   116    65    1
    82    84    40    1
    83    14    25    1
    84    67    68    1
    85    67    13    1
    86    68    75    1
    87    68    69    1
    88    65    64    1
    89    65   117    1
    90    64    75    1
    91    64   115    1
    92   119    69    1
    93    25    40    1
    94    25    24    1
    95    11    35    1
    96    34    77    1
    97    34    45    1
    98    34    35    1
    99    98    45    1
   100    40    86    1
   101    40    85    1
   102    69   120    1
   103    69   118    1
   104   101    46    1
   105    45    97    1
   106    45    96    1
   107    35    49    1
   108    35    36    1
   109   100    46    1
   110    24    51    1
   111    24    47    2
   112    46    36    1
   113    46    99    1
   114    51    37    1
   115    49   103    1
   116    36    37    1
   117    36    50    1
   118    37    78    1
   119    37    38    1
   120    50   104    1
   121    79    38    1
   122    81    39    1
   123    38    39    1
   124    38    80    1
   125    39    82    1
   126    39    83    1
