@<TRIPOS>MOLECULE
248.49853
 124 126 0 0 0
SMALL
GASTEIGER

@<TRIPOS>ATOM
      1 H          47.4120   29.2880  270.1460 H       1  UNL1        0.0524
      2 H          40.6800   36.9310  267.6960 H       1  UNL1        0.0391
      3 H          43.0900   33.8140  266.1900 H       1  UNL1        0.0391
      4 H          48.3200   27.8250  270.5340 H       1  UNL1        0.0524
      5 H          41.1450   36.8900  266.0050 H       1  UNL1        0.0391
      6 H          41.3870   33.8960  265.6850 H       1  UNL1        0.0391
      7 H          46.5530   27.9080  270.8360 H       1  UNL1        0.0524
      8 H          39.9370   35.7390  266.6060 H       1  UNL1        0.0391
      9 H          42.5520   35.1190  265.1570 H       1  UNL1        0.0391
     10 H          45.0590   31.5310  271.9960 H       1  UNL1        0.0629
     11 H          39.4380   29.9420  278.0570 H       1  UNL1        0.0639
     12 H          46.6810   30.5420  273.9710 H       1  UNL1        0.0621
     13 H          48.3520   28.3660  275.3520 H       1  UNL1        0.0648
     14 H          41.5110   28.7690  272.4520 H       1  UNL1        0.0436
     15 H          42.1680   30.6930  271.8440 H       1  UNL1        0.0349
     16 H          43.4850   30.0030  273.9610 H       1  UNL1        0.0608
     17 H          44.5970   29.5020  270.4020 H       1  UNL1        0.0234
     18 H          43.3190   30.4300  269.6320 H       1  UNL1        0.0234
     19 H          42.9360   28.8830  270.3410 H       1  UNL1        0.0234
     20 H          41.9040   31.7490  273.8610 H       1  UNL1        0.0297
     21 H          41.6630   33.1380  272.8320 H       1  UNL1        0.0297
     22 H          43.2790   32.7080  276.2970 H       1  UNL1        0.0429
     23 H          42.0570   33.6360  277.0750 H       1  UNL1        0.0429
     24 C          41.8240   28.2660  274.4650 C.2     1  UNL1        0.3128
     25 C          42.3510   28.3860  273.0470 C.3     1  UNL1        0.0801
     26 C          43.5000   29.4480  273.0210 C.3     1  UNL1        0.0793
     27 C          43.2360   30.4550  271.8400 C.3     1  UNL1        0.0124
     28 C          43.9990   31.8190  271.9450 C.3     1  UNL1        0.0950
     29 C          43.7530   32.7010  273.2390 C.3     1  UNL1        0.0900
     30 C          42.2590   32.7650  273.6680 C.3     1  UNL1       -0.0181
     31 C          41.9290   33.6170  274.9210 C.3     1  UNL1       -0.0284
     32 C          42.2000   32.9030  276.2730 C.3     1  UNL1        0.0016
     33 N          41.4740   31.6360  276.5840 N.3     1  UNL1       -0.2999
     34 C          40.1650   31.8620  277.2580 C.3     1  UNL1        0.0361
     35 C          39.1590   30.6480  277.2650 C.3     1  UNL1        0.1022
     36 C          38.9150   29.8410  275.9370 C.3     1  UNL1        0.1270
     37 C          39.9060   28.6170  275.8360 C.3     1  UNL1        0.1335
     38 C          39.2210   27.2660  276.1510 C.3     1  UNL1       -0.0157
     39 C          40.1730   26.0800  276.2300 C.3     1  UNL1       -0.0618
     40 C          42.6720   26.9940  272.5070 C.3     1  UNL1       -0.0499
     41 C          43.5430   29.7810  270.4820 C.3     1  UNL1       -0.0576
     42 C          44.3810   34.0990  273.0720 C.3     1  UNL1       -0.0336
     43 C          40.5140   34.1910  274.8130 C.3     1  UNL1       -0.0612
     44 C          42.3780   30.8000  277.3960 C.3     1  UNL1       -0.0124
     45 C          40.2880   32.3860  278.7120 C.3     1  UNL1       -0.0470
     46 C          38.8950   30.7340  274.6940 C.3     1  UNL1       -0.0301
     47 O          42.5010   27.9300  275.4260 O.2     1  UNL1       -0.2504
     48 O          44.4620   32.1040  274.3310 O.3     1  UNL1       -0.3863
     49 O          37.8720   31.1820  277.6800 O.3     1  UNL1       -0.3873
     50 O          37.5430   29.3390  276.0460 O.3     1  UNL1       -0.3826
     51 O          40.4890   28.5510  274.5130 O.3     1  UNL1       -0.4581
     52 C          42.7160   33.2060  270.3180 C.3     1  UNL1        0.1871
     53 C          42.9980   33.9710  269.0000 C.3     1  UNL1        0.1214
     54 C          41.6880   34.5610  268.4190 C.3     1  UNL1        0.0429
     55 C          40.6080   33.4770  268.3380 C.3     1  UNL1       -0.0085
     56 C          40.4380   32.8310  269.7130 C.3     1  UNL1        0.0605
     57 C          39.4040   31.7140  269.6700 C.3     1  UNL1       -0.0385
     58 C          40.8700   36.2550  266.8550 C.3     1  UNL1       -0.0127
     59 C          42.2510   34.4900  266.0030 C.3     1  UNL1       -0.0127
     60 O          43.9360   32.5680  270.7130 O.3     1  UNL1       -0.3423
     61 O          43.9190   35.0560  269.2110 O.3     1  UNL1       -0.3852
     62 N          41.9590   35.3260  267.1700 N.3     1  UNL1       -0.3027
     63 O          41.6720   32.2540  270.1300 O.3     1  UNL1       -0.3457
     64 C          45.3630   28.2070  273.9680 C.3     1  UNL1        0.1627
     65 C          46.5300   27.3220  273.5180 C.3     1  UNL1        0.0298
     66 C          47.8280   28.1030  273.2530 C.3     1  UNL1        0.0991
     67 C          48.1140   28.9960  274.4860 C.3     1  UNL1        0.1098
     68 C          46.8810   29.8590  274.8030 C.3     1  UNL1        0.0874
     69 C          47.1070   30.7000  276.0570 C.3     1  UNL1       -0.0361
     70 C          49.0040   27.1330  273.0420 C.3     1  UNL1       -0.0331
     71 C          47.4930   28.4620  270.8580 C.3     1  UNL1        0.0373
     72 O          44.8150   28.8930  272.8420 O.3     1  UNL1       -0.3468
     73 O          47.7490   29.0190  272.1380 O.3     1  UNL1       -0.3740
     74 O          49.2480   29.8340  274.2230 O.3     1  UNL1       -0.3864
     75 O          45.7290   29.0560  275.0450 O.3     1  UNL1       -0.3456
     76 H          42.5790   34.5000  274.9190 H       1  UNL1        0.0311
     77 H          39.6430   32.6540  276.7150 H       1  UNL1        0.0486
     78 H          40.6970   28.7620  276.5700 H       1  UNL1        0.0764
     79 H          38.4820   27.0360  275.3750 H       1  UNL1        0.0299
     80 H          38.6960   27.3380  277.1100 H       1  UNL1        0.0299
     81 H          40.6330   25.8690  275.2600 H       1  UNL1        0.0231
     82 H          40.9620   26.2550  276.9670 H       1  UNL1        0.0231
     83 H          39.6240   25.1820  276.5330 H       1  UNL1        0.0231
     84 H          43.2180   27.0360  271.5610 H       1  UNL1        0.0238
     85 H          43.2500   26.3870  273.2090 H       1  UNL1        0.0238
     86 H          41.7410   26.4440  272.3270 H       1  UNL1        0.0238
     87 H          45.3660   34.0230  272.5960 H       1  UNL1        0.0258
     88 H          44.5650   34.5740  274.0420 H       1  UNL1        0.0258
     89 H          43.7660   34.7750  272.4750 H       1  UNL1        0.0258
     90 H          40.2460   34.7500  275.7160 H       1  UNL1        0.0233
     91 H          39.7650   33.4180  274.6420 H       1  UNL1        0.0233
     92 H          40.4530   34.8890  273.9700 H       1  UNL1        0.0233
     93 H          41.8800   29.9190  277.8050 H       1  UNL1        0.0391
     94 H          42.8080   31.3510  278.2410 H       1  UNL1        0.0391
     95 H          43.2040   30.4370  276.7740 H       1  UNL1        0.0391
     96 H          39.3100   32.6900  279.1000 H       1  UNL1        0.0246
     97 H          40.6820   31.6180  279.3860 H       1  UNL1        0.0246
     98 H          40.9330   33.2660  278.7880 H       1  UNL1        0.0246
     99 H          38.5280   30.1830  273.8190 H       1  UNL1        0.0259
    100 H          38.2050   31.5740  274.8300 H       1  UNL1        0.0259
    101 H          39.8820   31.1220  274.4490 H       1  UNL1        0.0259
    102 H          45.4120   32.1790  274.1400 H       1  UNL1        0.2103
    103 H          37.2230   30.5250  277.3470 H       1  UNL1        0.2100
    104 H          37.3160   28.9350  275.1890 H       1  UNL1        0.2104
    105 H          42.4230   33.9340  271.0760 H       1  UNL1        0.0937
    106 H          43.4680   33.2790  268.2910 H       1  UNL1        0.0660
    107 H          41.3550   35.3070  269.1570 H       1  UNL1        0.0490
    108 H          40.9070   32.7080  267.6150 H       1  UNL1        0.0306
    109 H          39.6530   33.8980  268.0050 H       1  UNL1        0.0306
    110 H          40.1200   33.5740  270.4550 H       1  UNL1        0.0595
    111 H          38.4240   32.0900  269.3640 H       1  UNL1        0.0255
    112 H          39.7100   30.9220  268.9780 H       1  UNL1        0.0255
    113 H          39.3080   31.2470  270.6570 H       1  UNL1        0.0255
    114 H          43.8450   35.5980  268.4000 H       1  UNL1        0.2101
    115 H          44.6150   27.5250  274.3680 H       1  UNL1        0.0911
    116 H          46.2320   26.7450  272.6360 H       1  UNL1        0.0343
    117 H          46.7290   26.6010  274.3230 H       1  UNL1        0.0343
    118 H          47.3250   30.0610  276.9200 H       1  UNL1        0.0255
    119 H          47.9310   31.4070  275.9280 H       1  UNL1        0.0255
    120 H          46.2030   31.2640  276.3120 H       1  UNL1        0.0255
    121 H          49.2210   26.5630  273.9510 H       1  UNL1        0.0258
    122 H          48.7850   26.4110  272.2480 H       1  UNL1        0.0258
    123 H          49.9110   27.6690  272.7410 H       1  UNL1        0.0258
    124 H          49.1240   30.1360  273.3000 H       1  UNL1        0.2100
@<TRIPOS>BOND
     1     9    59    1
     2     6    59    1
     3    59     3    1
     4    59    62    1
     5     5    58    1
     6     8    58    1
     7    58    62    1
     8    58     2    1
     9    62    54    1
    10   108    55    1
    11   109    55    1
    12   106    53    1
    13    55    54    1
    14    55    56    1
    15   114    61    1
    16    54    53    1
    17    54   107    1
    18   112    57    1
    19    53    61    1
    20    53    52    1
    21   111    57    1
    22    18    41    1
    23    57    56    1
    24    57   113    1
    25    56    63    1
    26    56   110    1
    27    63    52    1
    28     1    71    1
    29    52    60    1
    30    52   105    1
    31    19    41    1
    32    17    41    1
    33    41    27    1
    34     4    71    1
    35    60    28    1
    36     7    71    1
    37    71    73    1
    38    84    40    1
    39    27    15    1
    40    27    28    1
    41    27    26    1
    42    28    10    1
    43    28    29    1
    44    73    66    1
    45   122    70    1
    46    86    40    1
    47    14    25    1
    48    89    42    1
    49    40    25    1
    50    40    85    1
    51    87    42    1
    52   116    65    1
    53   123    70    1
    54    21    30    1
    55    72    26    1
    56    72    64    1
    57    26    25    1
    58    26    16    1
    59    70    66    1
    60    70   121    1
    61    25    24    1
    62    42    29    1
    63    42    88    1
    64    29    30    1
    65    29    48    1
    66    66    65    1
    67    66    67    1
    68   124    74    1
    69    65    64    1
    70    65   117    1
    71    30    20    1
    72    30    31    1
    73    99    46    1
    74    64   115    1
    75    64    75    1
    76    92    43    1
    77    12    68    1
    78   102    48    1
    79    74    67    1
    80   101    46    1
    81    24    51    1
    82    24    47    2
    83    67    68    1
    84    67    13    1
    85    51    37    1
    86    91    43    1
    87    46   100    1
    88    46    36    1
    89    68    75    1
    90    68    69    1
    91    43    31    1
    92    43    90    1
    93    76    31    1
    94    31    32    1
    95   104    50    1
    96    81    39    1
    97    79    38    1
    98    37    36    1
    99    37    38    1
   100    37    78    1
   101   119    69    1
   102    36    50    1
   103    36    35    1
   104    69   120    1
   105    69   118    1
   106    38    39    1
   107    38    80    1
   108    39    83    1
   109    39    82    1
   110    32    22    1
   111    32    33    1
   112    32    23    1
   113    33    34    1
   114    33    44    1
   115    77    34    1
   116    95    44    1
   117    34    35    1
   118    34    45    1
   119    35    49    1
   120    35    11    1
   121   103    49    1
   122    44    93    1
   123    44    94    1
   124    45    98    1
   125    45    96    1
   126    45    97    1
