@<TRIPOS>MOLECULE
234.90450
 124 126 0 0 0
SMALL
GASTEIGER

@<TRIPOS>ATOM
      1 H          33.3850   31.0220  277.2460 H       1  UNL1        0.0524
      2 H          27.2210   29.6510  270.6360 H       1  UNL1        0.0391
      3 H          28.5960   33.1240  268.6770 H       1  UNL1        0.0391
      4 H          34.3190   29.8540  278.1840 H       1  UNL1        0.0524
      5 H          26.0930   30.7650  269.8850 H       1  UNL1        0.0391
      6 H          27.8950   31.8140  267.7010 H       1  UNL1        0.0391
      7 H          35.0690   30.7300  276.8100 H       1  UNL1        0.0524
      8 H          27.1040   29.7250  268.8630 H       1  UNL1        0.0391
      9 H          26.8870   32.7720  268.7950 H       1  UNL1        0.0391
     10 H          34.2430   30.7140  270.7840 H       1  UNL1        0.0629
     11 H          39.6910   31.5780  269.3520 H       1  UNL1        0.0639
     12 H          33.2090   28.8700  273.7110 H       1  UNL1        0.0621
     13 H          34.3330   26.2770  274.9150 H       1  UNL1        0.0648
     14 H          37.0230   32.9490  272.6230 H       1  UNL1        0.0436
     15 H          34.7820   33.1240  272.5490 H       1  UNL1        0.0349
     16 H          36.0510   30.5330  272.1290 H       1  UNL1        0.0608
     17 H          32.8310   30.9320  273.2650 H       1  UNL1        0.0234
     18 H          32.5200   32.6610  273.0870 H       1  UNL1        0.0234
     19 H          33.5310   32.0980  274.4030 H       1  UNL1        0.0234
     20 H          35.3140   34.3670  271.0300 H       1  UNL1        0.0297
     21 H          34.0810   34.3090  269.7860 H       1  UNL1        0.0297
     22 H          37.4760   35.1050  270.6650 H       1  UNL1        0.0429
     23 H          38.0000   35.8430  269.1600 H       1  UNL1        0.0429
     24 C          38.2990   31.4330  273.2940 C.2     1  UNL1        0.3128
     25 C          36.9370   32.1280  273.3460 C.3     1  UNL1        0.0801
     26 C          35.7490   31.2060  272.9380 C.3     1  UNL1        0.0793
     27 C          34.5210   32.0660  272.4530 C.3     1  UNL1        0.0124
     28 C          34.1940   31.8020  270.9360 C.3     1  UNL1        0.0950
     29 C          35.2160   32.4800  269.9400 C.3     1  UNL1        0.0900
     30 C          35.1210   34.0320  270.0060 C.3     1  UNL1       -0.0181
     31 C          36.0380   34.8850  269.0890 C.3     1  UNL1       -0.0284
     32 C          37.5070   34.9540  269.5770 C.3     1  UNL1        0.0016
     33 N          38.3080   33.7500  269.2640 N.3     1  UNL1       -0.2999
     34 C          39.4510   33.5720  270.2340 C.3     1  UNL1        0.0361
     35 C          40.2950   32.2800  269.9400 C.3     1  UNL1        0.1022
     36 C          40.8630   31.4640  271.1630 C.3     1  UNL1        0.1270
     37 C          39.8300   30.3890  271.6670 C.3     1  UNL1        0.1335
     38 C          40.4430   29.3520  272.6410 C.3     1  UNL1       -0.0157
     39 C          39.4920   28.2480  273.0700 C.3     1  UNL1       -0.0618
     40 C          36.7380   32.7750  274.7210 C.3     1  UNL1       -0.0499
     41 C          33.2820   31.9210  273.3510 C.3     1  UNL1       -0.0576
     42 C          34.9570   31.9950  268.5050 C.3     1  UNL1       -0.0336
     43 C          35.4810   36.3190  269.0570 C.3     1  UNL1       -0.0612
     44 C          38.7600   33.7950  267.8620 C.3     1  UNL1       -0.0124
     45 C          40.3320   34.8360  270.3500 C.3     1  UNL1       -0.0470
     46 C          41.4200   32.3510  272.2790 C.3     1  UNL1       -0.0301
     47 O          39.0970   31.4000  274.2200 O.2     1  UNL1       -0.2504
     48 O          36.5240   32.0390  270.2900 O.3     1  UNL1       -0.3863
     49 O          41.4070   32.6330  269.0830 O.3     1  UNL1       -0.3873
     50 O          42.0080   30.7350  270.6130 O.3     1  UNL1       -0.3826
     51 O          38.5530   30.9500  272.0540 O.3     1  UNL1       -0.4581
     52 C          31.9340   31.2350  270.3480 C.3     1  UNL1        0.1871
     53 C          30.5190   31.8520  270.2900 C.3     1  UNL1        0.1214
     54 C          29.4900   30.7980  269.8060 C.3     1  UNL1        0.0429
     55 C          29.9770   30.1350  268.5120 C.3     1  UNL1       -0.0085
     56 C          31.3840   29.5750  268.7270 C.3     1  UNL1        0.0605
     57 C          31.9250   28.9530  267.4470 C.3     1  UNL1       -0.0385
     58 C          27.0910   30.3230  269.7810 C.3     1  UNL1       -0.0127
     59 C          27.8720   32.3040  268.6800 C.3     1  UNL1       -0.0127
     60 O          32.8750   32.2840  270.6240 O.3     1  UNL1       -0.3423
     61 O          30.0940   32.3320  271.5770 O.3     1  UNL1       -0.3852
     62 N          28.1150   31.3720  269.7820 N.3     1  UNL1       -0.3027
     63 O          32.2700   30.6280  269.0990 O.3     1  UNL1       -0.3457
     64 C          35.8470   29.0780  274.0430 C.3     1  UNL1        0.1627
     65 C          35.9400   28.5050  275.4570 C.3     1  UNL1        0.0298
     66 C          34.5730   28.1240  276.0490 C.3     1  UNL1        0.0991
     67 C          33.8220   27.2430  275.0160 C.3     1  UNL1        0.1098
     68 C          33.7860   27.9430  273.6460 C.3     1  UNL1        0.0874
     69 C          33.1100   27.0730  272.5900 C.3     1  UNL1       -0.0361
     70 C          34.7600   27.3330  277.3560 C.3     1  UNL1       -0.0331
     71 C          34.1600   30.2530  277.1800 C.3     1  UNL1        0.0373
     72 O          35.3500   30.4100  274.0720 O.3     1  UNL1       -0.3468
     73 O          33.6970   29.2470  276.2910 O.3     1  UNL1       -0.3740
     74 O          32.4890   26.9900  275.4780 O.3     1  UNL1       -0.3864
     75 O          35.1040   28.2300  273.1740 O.3     1  UNL1       -0.3456
     76 H          35.9870   34.5130  268.0620 H       1  UNL1        0.0311
     77 H          38.9690   33.4190  271.2050 H       1  UNL1        0.0486
     78 H          39.5790   29.7900  270.7800 H       1  UNL1        0.0764
     79 H          40.8400   29.8310  273.5400 H       1  UNL1        0.0299
     80 H          41.2970   28.8700  272.1510 H       1  UNL1        0.0299
     81 H          38.8530   28.5890  273.8860 H       1  UNL1        0.0231
     82 H          38.8690   27.9010  272.2400 H       1  UNL1        0.0231
     83 H          40.0590   27.3930  273.4510 H       1  UNL1        0.0231
     84 H          35.7840   33.3080  274.7780 H       1  UNL1        0.0238
     85 H          36.7690   32.0330  275.5260 H       1  UNL1        0.0238
     86 H          37.5340   33.5010  274.9220 H       1  UNL1        0.0238
     87 H          34.9320   30.9000  268.4660 H       1  UNL1        0.0258
     88 H          35.7650   32.2910  267.8290 H       1  UNL1        0.0258
     89 H          34.0150   32.3830  268.1060 H       1  UNL1        0.0258
     90 H          36.0750   36.9540  268.3910 H       1  UNL1        0.0233
     91 H          35.4890   36.7710  270.0550 H       1  UNL1        0.0233
     92 H          34.4500   36.3300  268.6870 H       1  UNL1        0.0233
     93 H          39.2510   32.8640  267.5660 H       1  UNL1        0.0391
     94 H          39.4410   34.6280  267.6630 H       1  UNL1        0.0391
     95 H          37.9080   33.8960  267.1830 H       1  UNL1        0.0391
     96 H          41.1640   34.6900  271.0420 H       1  UNL1        0.0246
     97 H          40.7630   35.1320  269.3880 H       1  UNL1        0.0246
     98 H          39.7650   35.6880  270.7360 H       1  UNL1        0.0246
     99 H          41.8680   31.7540  273.0800 H       1  UNL1        0.0259
    100 H          42.2380   32.9750  271.9020 H       1  UNL1        0.0259
    101 H          40.6610   32.9960  272.7270 H       1  UNL1        0.0259
    102 H          37.1600   32.5170  269.7130 H       1  UNL1        0.2103
    103 H          42.0210   31.8720  269.1660 H       1  UNL1        0.2100
    104 H          42.5700   30.4530  271.3580 H       1  UNL1        0.2104
    105 H          31.9830   30.4890  271.1520 H       1  UNL1        0.0937
    106 H          30.5440   32.7150  269.6150 H       1  UNL1        0.0660
    107 H          29.4770   30.0250  270.5900 H       1  UNL1        0.0490
    108 H          30.0070   30.8760  267.7040 H       1  UNL1        0.0306
    109 H          29.3010   29.3300  268.2040 H       1  UNL1        0.0306
    110 H          31.3830   28.8120  269.5150 H       1  UNL1        0.0595
    111 H          31.2930   28.1270  267.1070 H       1  UNL1        0.0255
    112 H          31.9940   29.6970  266.6460 H       1  UNL1        0.0255
    113 H          32.9400   28.5720  267.6080 H       1  UNL1        0.0255
    114 H          29.1280   32.4530  271.4830 H       1  UNL1        0.2101
    115 H          36.8600   29.1040  273.6440 H       1  UNL1        0.0911
    116 H          36.4650   29.2140  276.1040 H       1  UNL1        0.0343
    117 H          36.5540   27.5950  275.4070 H       1  UNL1        0.0343
    118 H          33.6510   26.1300  272.4560 H       1  UNL1        0.0255
    119 H          32.0720   26.8480  272.8540 H       1  UNL1        0.0255
    120 H          33.1160   27.5800  271.6190 H       1  UNL1        0.0255
    121 H          35.2390   26.3650  277.1740 H       1  UNL1        0.0258
    122 H          35.3910   27.8810  278.0640 H       1  UNL1        0.0258
    123 H          33.8010   27.1590  277.8560 H       1  UNL1        0.0258
    124 H          32.1860   27.8480  275.8400 H       1  UNL1        0.2100
@<TRIPOS>BOND
     1   112    57    1
     2   111    57    1
     3    95    44    1
     4    57   113    1
     5    57    56    1
     6    93    44    1
     7    94    44    1
     8     6    59    1
     9   108    55    1
    10    88    42    1
    11    44    33    1
    12    76    31    1
    13    89    42    1
    14   109    55    1
    15    90    43    1
    16    87    42    1
    17    42    29    1
    18    55    56    1
    19    55    54    1
    20     3    59    1
    21    59     9    1
    22    59    62    1
    23    92    43    1
    24    56    63    1
    25    56   110    1
    26     8    58    1
    27    43    31    1
    28    43    91    1
    29    49   103    1
    30    49    35    1
    31    31    32    1
    32    31    30    1
    33    63    52    1
    34    23    32    1
    35    33    32    1
    36    33    34    1
    37    11    35    1
    38    97    45    1
    39    32    22    1
    40   106    53    1
    41   102    48    1
    42    58    62    1
    43    58     5    1
    44    58     2    1
    45    62    54    1
    46    21    30    1
    47    54    53    1
    48    54   107    1
    49    29    30    1
    50    29    48    1
    51    29    28    1
    52    35    34    1
    53    35    36    1
    54    30    20    1
    55    34    45    1
    56    34    77    1
    57    53    52    1
    58    53    61    1
    59    52    60    1
    60    52   105    1
    61    45    98    1
    62    45    96    1
    63    50    36    1
    64    50   104    1
    65    60    28    1
    66    78    37    1
    67    10    28    1
    68    28    27    1
    69    36    37    1
    70    36    46    1
    71   114    61    1
    72   120    69    1
    73    37    51    1
    74    37    38    1
    75   100    46    1
    76    51    24    1
    77    16    26    1
    78    80    38    1
    79    82    39    1
    80    46   101    1
    81    46    99    1
    82    27    15    1
    83    27    26    1
    84    27    41    1
    85   118    69    1
    86    69   119    1
    87    69    68    1
    88    14    25    1
    89    38    39    1
    90    38    79    1
    91    26    25    1
    92    26    72    1
    93    39    83    1
    94    39    81    1
    95    18    41    1
    96    75    68    1
    97    75    64    1
    98    17    41    1
    99    24    25    1
   100    24    47    2
   101    25    40    1
   102    41    19    1
   103   115    64    1
   104    68    12    1
   105    68    67    1
   106    64    72    1
   107    64    65    1
   108    40    84    1
   109    40    86    1
   110    40    85    1
   111    13    67    1
   112    67    74    1
   113    67    66    1
   114   117    65    1
   115    65    66    1
   116    65   116    1
   117    74   124    1
   118    66    73    1
   119    66    70    1
   120    73    71    1
   121     7    71    1
   122   121    70    1
   123    71     1    1
   124    71     4    1
   125    70   123    1
   126    70   122    1
