@<TRIPOS>MOLECULE
237.01763
 124 126 0 0 0
SMALL
GASTEIGER

@<TRIPOS>ATOM
      1 H          31.6620   33.2490  272.2490 H       1  UNL1        0.0524
      2 H          27.6570   31.3800  275.7430 H       1  UNL1        0.0391
      3 H          29.4110   27.8160  277.1590 H       1  UNL1        0.0391
      4 H          31.9200   34.9310  271.7770 H       1  UNL1        0.0524
      5 H          26.6680   29.9840  276.1290 H       1  UNL1        0.0391
      6 H          28.4070   28.7730  278.2700 H       1  UNL1        0.0391
      7 H          33.3010   33.7900  271.8840 H       1  UNL1        0.0524
      8 H          27.3970   30.9270  277.4430 H       1  UNL1        0.0391
      9 H          27.6860   27.9270  276.8930 H       1  UNL1        0.0391
     10 H          34.7110   31.4820  276.0530 H       1  UNL1        0.0629
     11 H          40.1170   28.4630  273.3310 H       1  UNL1        0.0639
     12 H          33.5790   33.4130  275.9350 H       1  UNL1        0.0621
     13 H          33.8500   36.4700  275.9440 H       1  UNL1        0.0648
     14 H          35.9690   31.3990  271.6640 H       1  UNL1        0.0436
     15 H          35.8120   29.6680  273.9440 H       1  UNL1        0.0349
     16 H          36.7470   32.0250  274.5740 H       1  UNL1        0.0608
     17 H          33.2050   31.1610  273.4560 H       1  UNL1        0.0234
     18 H          33.4620   29.4050  273.4470 H       1  UNL1        0.0234
     19 H          34.1960   30.3960  272.2110 H       1  UNL1        0.0234
     20 H          36.1650   28.0080  275.3480 H       1  UNL1        0.0297
     21 H          35.0660   27.8260  276.6830 H       1  UNL1        0.0297
     22 H          37.4770   25.9790  275.7520 H       1  UNL1        0.0429
     23 H          38.7620   26.0710  276.9480 H       1  UNL1        0.0429
     24 C          37.7710   30.5850  272.4790 C.2     1  UNL1        0.3128
     25 C          36.7120   31.6690  272.4220 C.3     1  UNL1        0.0801
     26 C          36.0000   31.8250  273.7990 C.3     1  UNL1        0.0793
     27 C          35.1870   30.5320  274.1660 C.3     1  UNL1        0.0124
     28 C          34.8460   30.4560  275.6950 C.3     1  UNL1        0.0950
     29 C          35.9880   29.7950  276.5690 C.3     1  UNL1        0.0900
     30 C          36.0420   28.2460  276.4060 C.3     1  UNL1       -0.0181
     31 C          37.1570   27.5220  277.2150 C.3     1  UNL1       -0.0284
     32 C          38.1050   26.6820  276.3150 C.3     1  UNL1        0.0016
     33 N          38.9120   27.4790  275.3690 N.3     1  UNL1       -0.2999
     34 C          39.5630   26.6180  274.3270 C.3     1  UNL1        0.0361
     35 C          39.8250   27.4560  273.0250 C.3     1  UNL1        0.1022
     36 C          38.6330   27.5430  272.0020 C.3     1  UNL1        0.1270
     37 C          38.8020   28.8620  271.1430 C.3     1  UNL1        0.1335
     38 C          38.8440   28.6010  269.6240 C.3     1  UNL1       -0.0157
     39 C          39.0810   29.8740  268.8180 C.3     1  UNL1       -0.0618
     40 C          37.4090   32.9290  271.9070 C.3     1  UNL1       -0.0499
     41 C          33.9420   30.3740  273.2740 C.3     1  UNL1       -0.0576
     42 C          35.7450   30.1510  278.0470 C.3     1  UNL1       -0.0336
     43 C          36.5190   26.5950  278.2600 C.3     1  UNL1       -0.0612
     44 C          39.9010   28.3010  276.0900 C.3     1  UNL1       -0.0124
     45 C          40.8290   25.8880  274.8160 C.3     1  UNL1       -0.0470
     46 C          37.2400   27.4260  272.6190 C.3     1  UNL1       -0.0301
     47 O          38.5800   30.4510  273.3850 O.2     1  UNL1       -0.2504
     48 O          37.2540   30.3640  276.2240 O.3     1  UNL1       -0.3863
     49 O          40.9660   26.9460  272.3000 O.3     1  UNL1       -0.3873
     50 O          38.7800   26.3580  271.1630 O.3     1  UNL1       -0.3826
     51 O          37.7220   29.8150  271.3560 O.3     1  UNL1       -0.4581
     52 C          32.5120   30.4990  276.2760 C.3     1  UNL1        0.1871
     53 C          31.2280   29.6660  276.0600 C.3     1  UNL1        0.1214
     54 C          30.0010   30.4290  276.6170 C.3     1  UNL1        0.0429
     55 C          30.2610   30.8500  278.0680 C.3     1  UNL1       -0.0085
     56 C          31.5660   31.6440  278.1460 C.3     1  UNL1        0.0605
     57 C          31.8840   32.0070  279.5910 C.3     1  UNL1       -0.0385
     58 C          27.5650   30.5350  276.4340 C.3     1  UNL1       -0.0127
     59 C          28.5610   28.5010  277.2200 C.3     1  UNL1       -0.0127
     60 O          33.6400   29.6980  275.8990 O.3     1  UNL1       -0.3423
     61 O          30.9880   29.3990  274.6660 O.3     1  UNL1       -0.3852
     62 N          28.7450   29.6690  276.3570 N.3     1  UNL1       -0.3027
     63 O          32.6510   30.8630  277.6510 O.3     1  UNL1       -0.3457
     64 C          35.5470   34.1570  274.2600 C.3     1  UNL1        0.1627
     65 C          34.8260   35.3240  273.5790 C.3     1  UNL1        0.0298
     66 C          33.3730   35.5000  274.0510 C.3     1  UNL1        0.0991
     67 C          33.3680   35.5460  275.6000 C.3     1  UNL1        0.1098
     68 C          34.1200   34.3330  276.1740 C.3     1  UNL1        0.0874
     69 C          34.2210   34.4260  277.6940 C.3     1  UNL1       -0.0361
     70 C          32.7870   36.8120  273.4990 C.3     1  UNL1       -0.0331
     71 C          32.3520   34.0940  272.3300 C.3     1  UNL1        0.0373
     72 O          35.0630   32.9200  273.7410 O.3     1  UNL1       -0.3468
     73 O          32.4940   34.4040  273.7090 O.3     1  UNL1       -0.3740
     74 O          32.0120   35.5500  276.0730 O.3     1  UNL1       -0.3864
     75 O          35.4550   34.2460  275.6750 O.3     1  UNL1       -0.3456
     76 H          37.7560   28.2460  277.7750 H       1  UNL1        0.0311
     77 H          38.8670   25.8170  274.0480 H       1  UNL1        0.0486
     78 H          39.7440   29.3660  271.3990 H       1  UNL1        0.0764
     79 H          37.8920   28.1670  269.2950 H       1  UNL1        0.0299
     80 H          39.6440   27.8910  269.3860 H       1  UNL1        0.0299
     81 H          38.2640   30.5910  268.9490 H       1  UNL1        0.0231
     82 H          40.0160   30.3590  269.1180 H       1  UNL1        0.0231
     83 H          39.1490   29.6360  267.7520 H       1  UNL1        0.0231
     84 H          36.6890   33.7230  271.6910 H       1  UNL1        0.0238
     85 H          38.1450   33.3010  272.6270 H       1  UNL1        0.0238
     86 H          37.9480   32.7220  270.9750 H       1  UNL1        0.0238
     87 H          35.6210   31.2330  278.1700 H       1  UNL1        0.0258
     88 H          36.6010   29.8840  278.6760 H       1  UNL1        0.0258
     89 H          34.8570   29.6520  278.4460 H       1  UNL1        0.0258
     90 H          37.2880   26.1130  278.8720 H       1  UNL1        0.0233
     91 H          35.9230   25.8090  277.7830 H       1  UNL1        0.0233
     92 H          35.8650   27.1590  278.9330 H       1  UNL1        0.0233
     93 H          40.5480   28.8530  275.4010 H       1  UNL1        0.0391
     94 H          40.5380   27.7030  276.7510 H       1  UNL1        0.0391
     95 H          39.4200   29.0630  276.7080 H       1  UNL1        0.0391
     96 H          41.1420   25.1340  274.0850 H       1  UNL1        0.0246
     97 H          41.6690   26.5740  274.9640 H       1  UNL1        0.0246
     98 H          40.6470   25.3550  275.7550 H       1  UNL1        0.0246
     99 H          36.4620   27.5980  271.8660 H       1  UNL1        0.0259
    100 H          37.0460   26.4210  273.0070 H       1  UNL1        0.0259
    101 H          37.1060   28.1400  273.4240 H       1  UNL1        0.0259
    102 H          37.6700   29.8080  275.5340 H       1  UNL1        0.2103
    103 H          40.5820   26.2830  271.6870 H       1  UNL1        0.2100
    104 H          37.9720   26.2790  270.6230 H       1  UNL1        0.2104
    105 H          32.4760   31.3960  275.6470 H       1  UNL1        0.0937
    106 H          31.3500   28.6980  276.5580 H       1  UNL1        0.0660
    107 H          29.9270   31.3450  276.0110 H       1  UNL1        0.0490
    108 H          30.3480   29.9580  278.7010 H       1  UNL1        0.0306
    109 H          29.4340   31.4560  278.4540 H       1  UNL1        0.0306
    110 H          31.4930   32.5660  277.5560 H       1  UNL1        0.0595
    111 H          31.1050   32.6440  280.0210 H       1  UNL1        0.0255
    112 H          31.9830   31.1070  280.2090 H       1  UNL1        0.0255
    113 H          32.8420   32.5320  279.6560 H       1  UNL1        0.0255
    114 H          30.0490   29.1250  274.6340 H       1  UNL1        0.2101
    115 H          36.6100   34.2590  274.0250 H       1  UNL1        0.0911
    116 H          34.8670   35.1970  272.4930 H       1  UNL1        0.0343
    117 H          35.3760   36.2440  273.8200 H       1  UNL1        0.0343
    118 H          34.8040   35.3040  277.9930 H       1  UNL1        0.0255
    119 H          33.2360   34.4860  278.1640 H       1  UNL1        0.0255
    120 H          34.7460   33.5520  278.0940 H       1  UNL1        0.0255
    121 H          33.3030   37.6850  273.9120 H       1  UNL1        0.0258
    122 H          32.8820   36.8620  272.4090 H       1  UNL1        0.0258
    123 H          31.7190   36.8970  273.7280 H       1  UNL1        0.0258
    124 H          31.5430   34.9350  275.4720 H       1  UNL1        0.2100
@<TRIPOS>BOND
     1    83    39    1
     2    39    81    1
     3    39    82    1
     4    39    38    1
     5    79    38    1
     6    80    38    1
     7    38    37    1
     8   104    50    1
     9    86    40    1
    10    37    51    1
    11    37    78    1
    12    37    36    1
    13    50    36    1
    14    51    24    1
    15    14    25    1
    16   103    49    1
    17    84    40    1
    18     4    71    1
    19    99    46    1
    20     7    71    1
    21    40    25    1
    22    40    85    1
    23    36    46    1
    24    36    35    1
    25    19    41    1
    26     1    71    1
    27    49    35    1
    28    71    73    1
    29   122    70    1
    30    25    24    1
    31    25    26    1
    32    24    47    2
    33   116    65    1
    34    46   100    1
    35    46   101    1
    36    35    11    1
    37    35    34    1
    38    41    18    1
    39    41    17    1
    40    41    27    1
    41    70   123    1
    42    70   121    1
    43    70    66    1
    44    65   117    1
    45    65    66    1
    46    65    64    1
    47    73    66    1
    48    72    26    1
    49    72    64    1
    50    26    27    1
    51    26    16    1
    52    15    27    1
    53   115    64    1
    54    77    34    1
    55    66    67    1
    56    96    45    1
    57    27    28    1
    58    64    75    1
    59    34    45    1
    60    34    33    1
    61   114    61    1
    62    61    53    1
    63    45    97    1
    64    45    98    1
    65    20    30    1
    66    33    44    1
    67    33    32    1
    68    93    44    1
    69   124    74    1
    70   102    48    1
    71    67    13    1
    72    67    74    1
    73    67    68    1
    74   105    52    1
    75    75    68    1
    76    28    60    1
    77    28    10    1
    78    28    29    1
    79     2    58    1
    80    22    32    1
    81    60    52    1
    82    12    68    1
    83   107    54    1
    84    53    52    1
    85    53   106    1
    86    53    54    1
    87    44    95    1
    88    44    94    1
    89     5    58    1
    90    68    69    1
    91    48    29    1
    92    52    63    1
    93    32    23    1
    94    32    31    1
    95    62    58    1
    96    62    54    1
    97    62    59    1
    98    30    29    1
    99    30    21    1
   100    30    31    1
   101    58     8    1
   102    29    42    1
   103    54    55    1
   104     9    59    1
   105     3    59    1
   106    31    76    1
   107    31    43    1
   108    59     6    1
   109   110    56    1
   110    63    56    1
   111    69   118    1
   112    69   120    1
   113    69   119    1
   114    91    43    1
   115    42    87    1
   116    42    89    1
   117    42    88    1
   118    55    56    1
   119    55   109    1
   120    55   108    1
   121    56    57    1
   122    43    90    1
   123    43    92    1
   124    57   113    1
   125    57   111    1
   126    57   112    1
