@<TRIPOS>MOLECULE
233.74209
 124 126 0 0 0
SMALL
GASTEIGER

@<TRIPOS>ATOM
      1 H          31.4320   29.6800  272.3880 H       1  UNL1        0.0524
      2 H          28.5340   34.5030  268.8620 H       1  UNL1        0.0391
      3 H          31.8490   36.2660  266.9390 H       1  UNL1        0.0391
      4 H          31.4950   28.0670  273.1030 H       1  UNL1        0.0524
      5 H          28.3720   36.0230  268.0000 H       1  UNL1        0.0391
      6 H          30.5350   35.6050  265.9410 H       1  UNL1        0.0391
      7 H          32.9170   29.1590  273.1850 H       1  UNL1        0.0524
      8 H          28.5720   34.5170  267.0840 H       1  UNL1        0.0391
      9 H          30.2840   37.0460  266.9370 H       1  UNL1        0.0391
     10 H          34.8020   31.0830  269.4720 H       1  UNL1        0.0629
     11 H          39.5900   31.1770  271.2900 H       1  UNL1        0.0639
     12 H          34.1840   28.9820  269.2770 H       1  UNL1        0.0621
     13 H          34.2330   25.9440  269.7370 H       1  UNL1        0.0648
     14 H          36.7610   31.9900  273.4740 H       1  UNL1        0.0436
     15 H          36.5210   32.8220  271.2770 H       1  UNL1        0.0349
     16 H          37.0790   30.3940  271.2290 H       1  UNL1        0.0608
     17 H          33.6480   31.9730  271.8800 H       1  UNL1        0.0234
     18 H          34.2060   33.6280  271.5550 H       1  UNL1        0.0234
     19 H          34.7430   32.8110  272.9890 H       1  UNL1        0.0234
     20 H          37.7440   33.5980  269.5450 H       1  UNL1        0.0297
     21 H          36.6380   34.0720  268.2720 H       1  UNL1        0.0297
     22 H          39.9910   34.2090  268.9090 H       1  UNL1        0.0429
     23 H          40.7530   33.5000  267.5030 H       1  UNL1        0.0429
     24 C          37.9510   30.2640  273.5480 C.2     1  UNL1        0.3128
     25 C          36.6080   30.9200  273.2790 C.3     1  UNL1        0.0801
     26 C          36.2010   30.7300  271.7830 C.3     1  UNL1        0.0793
     27 C          35.7150   32.0890  271.1530 C.3     1  UNL1        0.0124
     28 C          35.3890   31.9960  269.6170 C.3     1  UNL1        0.0950
     29 C          36.6460   31.9360  268.6550 C.3     1  UNL1        0.0900
     30 C          37.3780   33.3120  268.5520 C.3     1  UNL1       -0.0181
     31 C          38.5670   33.3910  267.5420 C.3     1  UNL1       -0.0284
     32 C          39.9490   33.3440  268.2340 C.3     1  UNL1        0.0016
     33 N          40.1610   32.0910  268.9800 N.3     1  UNL1       -0.2999
     34 C          41.0440   32.2990  270.1720 C.3     1  UNL1        0.0361
     35 C          40.6810   31.2790  271.3030 C.3     1  UNL1        0.1022
     36 C          41.1340   31.6480  272.7630 C.3     1  UNL1        0.1270
     37 C          40.2910   30.7780  273.7660 C.3     1  UNL1        0.1335
     38 C          40.7400   30.9110  275.2360 C.3     1  UNL1       -0.0157
     39 C          39.9990   29.9650  276.1740 C.3     1  UNL1       -0.0618
     40 C          35.6090   30.4110  274.3170 C.3     1  UNL1       -0.0499
     41 C          34.5080   32.6480  271.9340 C.3     1  UNL1       -0.0576
     42 C          36.1730   31.4970  267.2560 C.3     1  UNL1       -0.0336
     43 C          38.4710   34.6970  266.7380 C.3     1  UNL1       -0.0612
     44 C          40.6310   31.0200  268.0850 C.3     1  UNL1       -0.0124
     45 C          42.5430   32.3520  269.8510 C.3     1  UNL1       -0.0470
     46 C          40.9890   33.1470  273.0710 C.3     1  UNL1       -0.0301
     47 O          38.1350   29.0620  273.6720 O.2     1  UNL1       -0.2504
     48 O          37.5450   30.9310  269.1110 O.3     1  UNL1       -0.3863
     49 O          41.2240   29.9790  271.0030 O.3     1  UNL1       -0.3873
     50 O          42.5310   31.2990  272.8690 O.3     1  UNL1       -0.3826
     51 O          38.9160   31.2190  273.6580 O.3     1  UNL1       -0.4581
     52 C          33.2430   32.8460  268.8960 C.3     1  UNL1        0.1871
     53 C          32.4970   34.1910  268.7250 C.3     1  UNL1        0.1214
     54 C          31.0650   33.9560  268.1820 C.3     1  UNL1        0.0429
     55 C          31.1060   33.0550  266.9420 C.3     1  UNL1       -0.0085
     56 C          31.8690   31.7710  267.2750 C.3     1  UNL1        0.0605
     57 C          31.9720   30.8640  266.0560 C.3     1  UNL1       -0.0385
     58 C          28.8880   35.0560  267.9840 C.3     1  UNL1       -0.0127
     59 C          30.7740   36.0660  266.9050 C.3     1  UNL1       -0.0127
     60 O          34.6100   33.1440  269.2180 O.3     1  UNL1       -0.3423
     61 O          32.3880   34.9070  269.9690 O.3     1  UNL1       -0.3852
     62 N          30.3380   35.2510  268.0420 N.3     1  UNL1       -0.3027
     63 O          33.1960   32.0940  267.6830 O.3     1  UNL1       -0.3457
     64 C          35.6400   28.4150  271.4590 C.3     1  UNL1        0.1627
     65 C          34.7030   27.3880  272.0980 C.3     1  UNL1        0.0298
     66 C          33.3950   27.1830  271.3190 C.3     1  UNL1        0.0991
     67 C          33.7450   26.9230  269.8310 C.3     1  UNL1        0.1098
     68 C          34.6920   28.0120  269.2980 C.3     1  UNL1        0.0874
     69 C          35.1310   27.6900  267.8710 C.3     1  UNL1       -0.0361
     70 C          32.6320   25.9680  271.8780 C.3     1  UNL1       -0.0331
     71 C          32.0820   28.8190  272.5690 C.3     1  UNL1        0.0373
     72 O          35.1540   29.7480  271.6500 O.3     1  UNL1       -0.3468
     73 O          32.5210   28.3350  271.3090 O.3     1  UNL1       -0.3740
     74 O          32.5380   26.8890  269.0560 O.3     1  UNL1       -0.3864
     75 O          35.8760   28.1050  270.0910 O.3     1  UNL1       -0.3456
     76 H          38.5140   32.5800  266.8120 H       1  UNL1        0.0311
     77 H          40.7660   33.2800  270.5680 H       1  UNL1        0.0486
     78 H          40.3980   29.7250  273.4780 H       1  UNL1        0.0764
     79 H          40.5640   31.9290  275.5990 H       1  UNL1        0.0299
     80 H          41.8120   30.7040  275.3220 H       1  UNL1        0.0299
     81 H          38.9340   30.2070  276.2260 H       1  UNL1        0.0231
     82 H          40.1080   28.9250  275.8520 H       1  UNL1        0.0231
     83 H          40.4060   30.0490  277.1870 H       1  UNL1        0.0231
     84 H          34.6060   30.8150  274.1510 H       1  UNL1        0.0238
     85 H          35.5440   29.3200  274.3230 H       1  UNL1        0.0238
     86 H          35.9250   30.7110  275.3230 H       1  UNL1        0.0238
     87 H          35.4690   30.6620  267.3260 H       1  UNL1        0.0258
     88 H          36.9990   31.1230  266.6430 H       1  UNL1        0.0258
     89 H          35.6780   32.3120  266.7190 H       1  UNL1        0.0258
     90 H          39.2890   34.7700  266.0140 H       1  UNL1        0.0233
     91 H          38.5180   35.5730  267.3940 H       1  UNL1        0.0233
     92 H          37.5300   34.7390  266.1790 H       1  UNL1        0.0233
     93 H          40.7350   30.0700  268.6140 H       1  UNL1        0.0391
     94 H          41.5850   31.2600  267.6040 H       1  UNL1        0.0391
     95 H          39.9020   30.8360  267.2890 H       1  UNL1        0.0391
     96 H          43.1160   32.6830  270.7230 H       1  UNL1        0.0246
     97 H          42.9390   31.3780  269.5460 H       1  UNL1        0.0246
     98 H          42.7480   33.0690  269.0490 H       1  UNL1        0.0246
     99 H          41.2550   33.3720  274.1080 H       1  UNL1        0.0259
    100 H          41.6880   33.7450  272.4760 H       1  UNL1        0.0259
    101 H          39.9720   33.5060  272.8900 H       1  UNL1        0.0259
    102 H          38.4560   31.2920  269.0970 H       1  UNL1        0.2103
    103 H          42.1230   29.9850  271.3900 H       1  UNL1        0.2100
    104 H          42.8800   31.6840  273.6920 H       1  UNL1        0.2104
    105 H          32.7970   32.2690  269.7150 H       1  UNL1        0.0937
    106 H          33.0760   34.8210  268.0420 H       1  UNL1        0.0660
    107 H          30.5400   33.4050  268.9760 H       1  UNL1        0.0490
    108 H          31.6200   33.5730  266.1230 H       1  UNL1        0.0306
    109 H          30.0940   32.8090  266.6030 H       1  UNL1        0.0306
    110 H          31.3690   31.2190  268.0810 H       1  UNL1        0.0595
    111 H          30.9820   30.5730  265.6920 H       1  UNL1        0.0255
    112 H          32.5150   31.3590  265.2430 H       1  UNL1        0.0255
    113 H          32.5350   29.9580  266.3030 H       1  UNL1        0.0255
    114 H          31.7090   35.5890  269.7930 H       1  UNL1        0.2101
    115 H          36.6030   28.3060  271.9620 H       1  UNL1        0.0911
    116 H          34.4970   27.6670  273.1350 H       1  UNL1        0.0343
    117 H          35.2360   26.4280  272.1240 H       1  UNL1        0.0343
    118 H          35.6070   26.7040  267.8220 H       1  UNL1        0.0255
    119 H          34.2860   27.7060  267.1760 H       1  UNL1        0.0255
    120 H          35.8810   28.4090  267.5270 H       1  UNL1        0.0255
    121 H          33.1830   25.0360  271.7080 H       1  UNL1        0.0258
    122 H          32.4760   26.0590  272.9590 H       1  UNL1        0.0258
    123 H          31.6420   25.8750  271.4210 H       1  UNL1        0.0258
    124 H          32.0020   27.6280  269.4110 H       1  UNL1        0.2100
@<TRIPOS>BOND
     1   112    57    1
     2   111    57    1
     3     6    59    1
     4    90    43    1
     5    57   113    1
     6    57    56    1
     7   108    55    1
     8    92    43    1
     9   109    55    1
    10    88    42    1
    11    89    42    1
    12    43    91    1
    13    43    31    1
    14    76    31    1
    15    59     9    1
    16    59     3    1
    17    59    62    1
    18    55    56    1
    19    55    54    1
    20     8    58    1
    21   119    69    1
    22    42    87    1
    23    42    29    1
    24    56    63    1
    25    56   110    1
    26    95    44    1
    27    23    32    1
    28   120    69    1
    29    31    32    1
    30    31    30    1
    31    94    44    1
    32    63    52    1
    33   118    69    1
    34    69    68    1
    35    58     5    1
    36    58    62    1
    37    58     2    1
    38    62    54    1
    39   106    53    1
    40    44    93    1
    41    44    33    1
    42    54    53    1
    43    54   107    1
    44    32    22    1
    45    32    33    1
    46    21    30    1
    47    30    29    1
    48    30    20    1
    49    29    48    1
    50    29    28    1
    51    53    52    1
    52    53    61    1
    53    52    60    1
    54    52   105    1
    55    33    34    1
    56    98    45    1
    57    74   124    1
    58    74    67    1
    59   102    48    1
    60    60    28    1
    61    12    68    1
    62    68    67    1
    63    68    75    1
    64    10    28    1
    65    97    45    1
    66    28    27    1
    67    13    67    1
    68   114    61    1
    69    67    66    1
    70    45    34    1
    71    45    96    1
    72    75    64    1
    73    34    77    1
    74    34    35    1
    75    49    35    1
    76    49   103    1
    77    27    15    1
    78    27    26    1
    79    27    41    1
    80    16    26    1
    81    11    35    1
    82    35    36    1
    83    73    66    1
    84    73    71    1
    85    66    70    1
    86    66    65    1
    87   123    70    1
    88    64    72    1
    89    64   115    1
    90    64    65    1
    91    18    41    1
    92    72    26    1
    93   121    70    1
    94    26    25    1
    95    70   122    1
    96    17    41    1
    97    41    19    1
    98    65   117    1
    99    65   116    1
   100     1    71    1
   101   100    46    1
   102    71     4    1
   103    71     7    1
   104    36    50    1
   105    36    46    1
   106    36    37    1
   107    50   104    1
   108   101    46    1
   109    46    99    1
   110    25    14    1
   111    25    24    1
   112    25    40    1
   113    78    37    1
   114    24    51    1
   115    24    47    2
   116    51    37    1
   117    37    38    1
   118    84    40    1
   119    40    85    1
   120    40    86    1
   121    38    80    1
   122    38    79    1
   123    38    39    1
   124    82    39    1
   125    39    81    1
   126    39    83    1
