@<TRIPOS>MOLECULE
244.34918
 124 126 0 0 0
SMALL
GASTEIGER

@<TRIPOS>ATOM
      1 H          50.2950   29.1550  278.0370 H       1  UNL1        0.0524
      2 H          50.2470   26.9240  271.2570 H       1  UNL1        0.0391
      3 H          46.7400   28.8570  269.9340 H       1  UNL1        0.0391
      4 H          51.0110   29.6570  279.5710 H       1  UNL1        0.0524
      5 H          49.5410   26.5380  269.6990 H       1  UNL1        0.0391
      6 H          48.2730   29.2120  269.1080 H       1  UNL1        0.0391
      7 H          49.2290   29.5910  279.3730 H       1  UNL1        0.0524
      8 H          50.3770   28.0870  269.9190 H       1  UNL1        0.0391
      9 H          47.5100   27.6220  268.9660 H       1  UNL1        0.0391
     10 H          47.2710   31.6510  275.7730 H       1  UNL1        0.0629
     11 H          41.9940   31.7800  278.0400 H       1  UNL1        0.0639
     12 H          48.6700   32.8580  276.9690 H       1  UNL1        0.0621
     13 H          50.1390   34.3990  279.1850 H       1  UNL1        0.0648
     14 H          44.5320   29.4120  278.6890 H       1  UNL1        0.0436
     15 H          44.7150   30.1530  276.5410 H       1  UNL1        0.0349
     16 H          45.3130   32.0410  278.1370 H       1  UNL1        0.0608
     17 H          47.6110   29.2510  276.8560 H       1  UNL1        0.0234
     18 H          46.3780   28.5440  275.7940 H       1  UNL1        0.0234
     19 H          46.2020   28.4120  277.5180 H       1  UNL1        0.0234
     20 H          43.5540   31.6130  275.6190 H       1  UNL1        0.0297
     21 H          43.9470   31.6930  273.9130 H       1  UNL1        0.0297
     22 H          42.4840   33.4590  276.7760 H       1  UNL1        0.0429
     23 H          41.4490   34.4950  275.8300 H       1  UNL1        0.0429
     24 C          44.1010   30.9720  280.0310 C.2     1  UNL1        0.3128
     25 C          45.1150   30.1770  279.2200 C.3     1  UNL1        0.0801
     26 C          45.8290   31.0810  278.1620 C.3     1  UNL1        0.0793
     27 C          45.7580   30.4240  276.7380 C.3     1  UNL1        0.0124
     28 C          46.2450   31.3380  275.5470 C.3     1  UNL1        0.0950
     29 C          45.3860   32.6360  275.2550 C.3     1  UNL1        0.0900
     30 C          43.9340   32.2750  274.8420 C.3     1  UNL1       -0.0181
     31 C          42.9490   33.4680  274.7130 C.3     1  UNL1       -0.0284
     32 C          41.8970   33.4930  275.8540 C.3     1  UNL1        0.0016
     33 N          40.7690   32.5340  275.9000 N.3     1  UNL1       -0.2999
     34 C          40.0960   32.5100  277.2460 C.3     1  UNL1        0.0361
     35 C          41.0800   32.2270  278.4430 C.3     1  UNL1        0.1022
     36 C          40.5790   31.2690  279.5730 C.3     1  UNL1        0.1270
     37 C          41.7590   31.0540  280.5970 C.3     1  UNL1        0.1335
     38 C          41.3790   30.1770  281.8060 C.3     1  UNL1       -0.0157
     39 C          42.4690   30.1380  282.8710 C.3     1  UNL1       -0.0618
     40 C          46.0310   29.4530  280.2070 C.3     1  UNL1       -0.0499
     41 C          46.5360   29.0890  276.7280 C.3     1  UNL1       -0.0576
     42 C          46.0470   33.4630  274.1360 C.3     1  UNL1       -0.0336
     43 C          42.3240   33.5650  273.3200 C.3     1  UNL1       -0.0612
     44 C          41.0520   31.1660  275.4730 C.3     1  UNL1       -0.0124
     45 C          39.2580   33.7860  277.4230 C.3     1  UNL1       -0.0470
     46 C          40.0870   29.9300  279.0010 C.3     1  UNL1       -0.0301
     47 O          44.3770   31.9180  280.7530 O.2     1  UNL1       -0.2504
     48 O          45.3320   33.4430  276.4300 O.3     1  UNL1       -0.3863
     49 O          41.4740   33.4720  279.0520 O.3     1  UNL1       -0.3873
     50 O          39.4800   31.9260  280.2300 O.3     1  UNL1       -0.3826
     51 O          42.8600   30.4160  279.9010 O.3     1  UNL1       -0.4581
     52 C          47.5150   30.2330  273.8040 C.3     1  UNL1        0.1871
     53 C          47.3110   29.2060  272.6650 C.3     1  UNL1        0.1214
     54 C          48.6370   28.9610  271.9050 C.3     1  UNL1        0.0429
     55 C          49.2640   30.2970  271.4890 C.3     1  UNL1       -0.0085
     56 C          49.4070   31.1940  272.7210 C.3     1  UNL1        0.0605
     57 C          49.9870   32.5500  272.3430 C.3     1  UNL1       -0.0385
     58 C          49.7170   27.3590  270.4030 C.3     1  UNL1       -0.0127
     59 C          47.7150   28.4460  269.6580 C.3     1  UNL1       -0.0127
     60 O          46.2200   30.5490  274.3370 O.3     1  UNL1       -0.3423
     61 O          46.8440   27.9400  273.1650 O.3     1  UNL1       -0.3852
     62 N          48.4450   27.9500  270.8270 N.3     1  UNL1       -0.3027
     63 O          48.1270   31.4220  273.3040 O.3     1  UNL1       -0.3457
     64 C          47.4770   32.4120  279.3120 C.3     1  UNL1        0.1627
     65 C          48.7300   32.1730  280.1610 C.3     1  UNL1        0.0298
     66 C          50.0380   32.2290  279.3520 C.3     1  UNL1        0.0991
     67 C          50.0430   33.5340  278.5150 C.3     1  UNL1        0.1098
     68 C          48.7380   33.6610  277.7110 C.3     1  UNL1        0.0874
     69 C          48.6880   34.9850  276.9520 C.3     1  UNL1       -0.0361
     70 C          51.2500   32.2300  280.3010 C.3     1  UNL1       -0.0331
     71 C          50.1770   29.8320  278.8880 C.3     1  UNL1        0.0373
     72 O          47.2180   31.2800  278.4830 O.3     1  UNL1       -0.3468
     73 O          50.1880   31.1610  278.3870 O.3     1  UNL1       -0.3740
     74 O          51.1740   33.5320  277.6330 O.3     1  UNL1       -0.3864
     75 O          47.5980   33.6230  278.5710 O.3     1  UNL1       -0.3456
     76 H          43.5150   34.4000  274.8340 H       1  UNL1        0.0311
     77 H          39.3560   31.7060  277.1910 H       1  UNL1        0.0486
     78 H          42.0500   32.0360  280.9920 H       1  UNL1        0.0764
     79 H          41.2010   29.1440  281.4870 H       1  UNL1        0.0299
     80 H          40.4600   30.5490  282.2710 H       1  UNL1        0.0299
     81 H          43.3810   29.6660  282.4930 H       1  UNL1        0.0231
     82 H          42.7160   31.1460  283.2180 H       1  UNL1        0.0231
     83 H          42.1290   29.5560  283.7340 H       1  UNL1        0.0231
     84 H          46.8100   28.8820  279.6960 H       1  UNL1        0.0238
     85 H          46.5100   30.1470  280.9040 H       1  UNL1        0.0238
     86 H          45.4500   28.7500  280.8160 H       1  UNL1        0.0238
     87 H          47.0940   33.6740  274.3800 H       1  UNL1        0.0258
     88 H          45.5710   34.4410  274.0120 H       1  UNL1        0.0258
     89 H          46.0060   32.9500  273.1700 H       1  UNL1        0.0258
     90 H          41.6630   34.4350  273.2540 H       1  UNL1        0.0233
     91 H          41.7420   32.6810  273.0520 H       1  UNL1        0.0233
     92 H          43.1070   33.6860  272.5630 H       1  UNL1        0.0233
     93 H          40.1210   30.5870  275.4280 H       1  UNL1        0.0391
     94 H          41.7290   30.6340  276.1470 H       1  UNL1        0.0391
     95 H          41.4580   31.1170  274.4610 H       1  UNL1        0.0391
     96 H          38.6570   33.7270  278.3370 H       1  UNL1        0.0246
     97 H          39.8710   34.6900  277.4820 H       1  UNL1        0.0246
     98 H          38.5620   33.9090  276.5860 H       1  UNL1        0.0246
     99 H          39.7930   29.2390  279.7980 H       1  UNL1        0.0259
    100 H          39.1800   30.0510  278.4010 H       1  UNL1        0.0259
    101 H          40.8520   29.4430  278.3890 H       1  UNL1        0.0259
    102 H          45.2960   34.3820  276.1850 H       1  UNL1        0.2103
    103 H          40.7340   33.7200  279.6410 H       1  UNL1        0.2100
    104 H          39.0150   31.2690  280.7780 H       1  UNL1        0.2104
    105 H          48.1370   29.7990  274.5950 H       1  UNL1        0.0937
    106 H          46.5370   29.5900  271.9900 H       1  UNL1        0.0660
    107 H          49.3100   28.4920  272.6380 H       1  UNL1        0.0490
    108 H          48.6200   30.7980  270.7560 H       1  UNL1        0.0306
    109 H          50.2440   30.1420  271.0250 H       1  UNL1        0.0306
    110 H          50.0640   30.7270  273.4660 H       1  UNL1        0.0595
    111 H          50.9800   32.4480  271.8930 H       1  UNL1        0.0255
    112 H          49.3330   33.0750  271.6380 H       1  UNL1        0.0255
    113 H          50.0690   33.1890  273.2290 H       1  UNL1        0.0255
    114 H          46.9830   27.3220  272.4180 H       1  UNL1        0.2101
    115 H          46.6460   32.5520  280.0080 H       1  UNL1        0.0911
    116 H          48.6420   31.2190  280.6880 H       1  UNL1        0.0343
    117 H          48.7690   32.9620  280.9250 H       1  UNL1        0.0343
    118 H          48.7500   35.8330  277.6420 H       1  UNL1        0.0255
    119 H          49.5010   35.0640  276.2240 H       1  UNL1        0.0255
    120 H          47.7370   35.0860  276.4200 H       1  UNL1        0.0255
    121 H          51.2840   33.1410  280.9080 H       1  UNL1        0.0258
    122 H          51.2150   31.3810  280.9920 H       1  UNL1        0.0258
    123 H          52.1900   32.1470  279.7440 H       1  UNL1        0.0258
    124 H          51.2110   32.6160  277.2880 H       1  UNL1        0.2100
@<TRIPOS>BOND
     1     9    59    1
     2     6    59    1
     3    59     3    1
     4    59    62    1
     5     5    58    1
     6     8    58    1
     7    58    62    1
     8    58     2    1
     9   108    55    1
    10    62    54    1
    11   109    55    1
    12    55    54    1
    13    55    56    1
    14   112    57    1
    15   111    57    1
    16    54   107    1
    17    54    53    1
    18   106    53    1
    19    57    56    1
    20    57   113    1
    21   114    61    1
    22    92    43    1
    23    53    61    1
    24    53    52    1
    25    56    63    1
    26    56   110    1
    27    91    43    1
    28    89    42    1
    29    90    43    1
    30    63    52    1
    31    43    31    1
    32    52    60    1
    33    52   105    1
    34    21    30    1
    35    88    42    1
    36    42    87    1
    37    42    29    1
    38    60    28    1
    39    95    44    1
    40    31    76    1
    41    31    30    1
    42    31    32    1
    43    30    29    1
    44    30    20    1
    45    29    28    1
    46    29    48    1
    47    93    44    1
    48    44    33    1
    49    44    94    1
    50    28    10    1
    51    28    27    1
    52    18    41    1
    53    23    32    1
    54    32    33    1
    55    32    22    1
    56    33    34    1
    57   102    48    1
    58   119    69    1
    59   120    69    1
    60    15    27    1
    61    98    45    1
    62    41    27    1
    63    41    17    1
    64    41    19    1
    65    27    26    1
    66    69   118    1
    67    69    68    1
    68    12    68    1
    69    77    34    1
    70    34    45    1
    71    34    35    1
    72   124    74    1
    73    45    97    1
    74    45    96    1
    75    74    67    1
    76    68    67    1
    77    68    75    1
    78     1    71    1
    79    11    35    1
    80    16    26    1
    81    26    72    1
    82    26    25    1
    83    73    71    1
    84    73    66    1
    85   101    46    1
    86   100    46    1
    87    35    49    1
    88    35    36    1
    89    72    64    1
    90    67    13    1
    91    67    66    1
    92    75    64    1
    93    14    25    1
    94    71     7    1
    95    71     4    1
    96    46    36    1
    97    46    99    1
    98    49   103    1
    99    25    24    1
   100    25    40    1
   101    64   115    1
   102    64    65    1
   103    66    65    1
   104    66    70    1
   105    36    50    1
   106    36    37    1
   107    84    40    1
   108   123    70    1
   109    51    24    1
   110    51    37    1
   111    24    47    2
   112    65   116    1
   113    65   117    1
   114    40    86    1
   115    40    85    1
   116    50   104    1
   117    70   121    1
   118    70   122    1
   119    37    78    1
   120    37    38    1
   121    79    38    1
   122    38    80    1
   123    38    39    1
   124    81    39    1
   125    39    82    1
   126    39    83    1
