@<TRIPOS>MOLECULE
241.46725
 124 126 0 0 0
SMALL
GASTEIGER

@<TRIPOS>ATOM
      1 H          41.8060   43.0580  277.3550 H       1  UNL1        0.0524
      2 H          48.2690   41.3220  272.9940 H       1  UNL1        0.0391
      3 H          48.0700   37.1320  273.4330 H       1  UNL1        0.0391
      4 H          40.2800   43.9280  277.5430 H       1  UNL1        0.0524
      5 H          49.7110   40.3330  272.8520 H       1  UNL1        0.0391
      6 H          48.4340   37.8040  271.8290 H       1  UNL1        0.0391
      7 H          40.3880   42.1800  277.9310 H       1  UNL1        0.0524
      8 H          48.5050   40.3100  271.5510 H       1  UNL1        0.0391
      9 H          49.5970   37.9390  273.1560 H       1  UNL1        0.0391
     10 H          41.8610   38.5650  274.5290 H       1  UNL1        0.0629
     11 H          40.7720   34.1110  277.5220 H       1  UNL1        0.0639
     12 H          40.6540   40.6120  274.1960 H       1  UNL1        0.0621
     13 H          38.0500   42.1530  273.6300 H       1  UNL1        0.0648
     14 H          40.9110   37.6410  278.8800 H       1  UNL1        0.0436
     15 H          42.2420   37.3110  277.2720 H       1  UNL1        0.0349
     16 H          39.8100   37.8040  276.2000 H       1  UNL1        0.0608
     17 H          42.6200   40.2300  276.4800 H       1  UNL1        0.0234
     18 H          43.8110   39.1170  277.1710 H       1  UNL1        0.0234
     19 H          42.4610   39.6640  278.1540 H       1  UNL1        0.0234
     20 H          43.5270   35.3560  274.9570 H       1  UNL1        0.0297
     21 H          43.0410   35.6510  273.2990 H       1  UNL1        0.0297
     22 H          43.5330   32.8600  275.6040 H       1  UNL1        0.0429
     23 H          42.3980   33.8820  276.3890 H       1  UNL1        0.0429
     24 C          39.0260   36.8670  278.3190 C.2     1  UNL1        0.3128
     25 C          40.0200   38.0130  278.3590 C.3     1  UNL1        0.0801
     26 C          40.3870   38.4110  276.9000 C.3     1  UNL1        0.0793
     27 C          41.9100   38.1640  276.6630 C.3     1  UNL1        0.0124
     28 C          42.2340   37.7710  275.1870 C.3     1  UNL1        0.0950
     29 C          41.6000   36.3750  274.7500 C.3     1  UNL1        0.0900
     30 C          42.6630   35.3370  274.2800 C.3     1  UNL1       -0.0181
     31 C          42.1610   33.8680  274.2290 C.3     1  UNL1       -0.0284
     32 C          42.4750   33.1570  275.5760 C.3     1  UNL1        0.0016
     33 N          41.5910   31.9960  275.8120 N.3     1  UNL1       -0.2999
     34 C          41.0290   31.9650  277.2130 C.3     1  UNL1        0.0361
     35 C          40.1260   33.2350  277.5520 C.3     1  UNL1        0.1022
     36 C          39.4170   33.2980  278.9550 C.3     1  UNL1        0.1270
     37 C          38.6140   34.6490  279.1240 C.3     1  UNL1        0.1335
     38 C          37.9020   34.7410  280.4980 C.3     1  UNL1       -0.0157
     39 C          36.9360   35.9140  280.6200 C.3     1  UNL1       -0.0618
     40 C          39.4440   39.1300  279.2270 C.3     1  UNL1       -0.0499
     41 C          42.7460   39.3650  277.1400 C.3     1  UNL1       -0.0576
     42 C          40.5880   36.6190  273.6180 C.3     1  UNL1       -0.0336
     43 C          42.7930   33.1500  273.0330 C.3     1  UNL1       -0.0612
     44 C          42.2990   30.7590  275.4570 C.3     1  UNL1       -0.0124
     45 C          40.2660   30.6470  277.4610 C.3     1  UNL1       -0.0470
     46 C          40.4590   33.1110  280.0710 C.3     1  UNL1       -0.0301
     47 O          37.9140   36.9490  277.8110 O.2     1  UNL1       -0.2504
     48 O          40.8820   35.8150  275.8570 O.3     1  UNL1       -0.3863
     49 O          39.1390   33.4140  276.5180 O.3     1  UNL1       -0.3873
     50 O          38.4560   32.2250  279.0210 O.3     1  UNL1       -0.3826
     51 O          39.5030   35.7830  279.0010 O.3     1  UNL1       -0.4581
     52 C          44.2390   38.6210  274.1600 C.3     1  UNL1        0.1871
     53 C          45.7750   38.5200  274.2930 C.3     1  UNL1        0.1214
     54 C          46.4760   39.3410  273.1840 C.3     1  UNL1        0.0429
     55 C          45.8960   38.9820  271.8110 C.3     1  UNL1       -0.0085
     56 C          44.3740   39.1450  271.8440 C.3     1  UNL1        0.0605
     57 C          43.7540   38.7650  270.5070 C.3     1  UNL1       -0.0385
     58 C          48.6360   40.3530  272.6370 C.3     1  UNL1       -0.0127
     59 C          48.5300   37.9740  272.9070 C.3     1  UNL1       -0.0127
     60 O          43.6680   37.6930  275.0850 O.3     1  UNL1       -0.3423
     61 O          46.2330   39.0100  275.5660 O.3     1  UNL1       -0.3852
     62 N          47.9580   39.2540  273.3280 N.3     1  UNL1       -0.3027
     63 O          43.8160   38.2850  272.8360 O.3     1  UNL1       -0.3457
     64 C          38.8090   39.9920  276.0240 C.3     1  UNL1        0.1627
     65 C          38.3010   41.4050  276.3210 C.3     1  UNL1        0.0298
     66 C          39.0450   42.5000  275.5370 C.3     1  UNL1        0.0991
     67 C          39.0670   42.1010  274.0390 C.3     1  UNL1        0.1098
     68 C          39.6070   40.6690  273.8740 C.3     1  UNL1        0.0874
     69 C          39.5560   40.2360  272.4110 C.3     1  UNL1       -0.0361
     70 C          38.3240   43.8500  275.6940 C.3     1  UNL1       -0.0331
     71 C          40.7200   42.9700  277.2550 C.3     1  UNL1        0.0373
     72 O          40.0880   39.7910  276.6230 O.3     1  UNL1       -0.3468
     73 O          40.4350   42.6570  275.9010 O.3     1  UNL1       -0.3740
     74 O          39.8850   43.0260  273.3080 O.3     1  UNL1       -0.3864
     75 O          38.8240   39.7350  274.6220 O.3     1  UNL1       -0.3456
     76 H          41.0790   33.8570  274.0600 H       1  UNL1        0.0311
     77 H          41.8820   31.9730  277.9060 H       1  UNL1        0.0486
     78 H          37.8390   34.6680  278.3470 H       1  UNL1        0.0764
     79 H          38.6440   34.8530  281.2970 H       1  UNL1        0.0299
     80 H          37.3340   33.8260  280.6940 H       1  UNL1        0.0299
     81 H          37.4620   36.8720  280.5950 H       1  UNL1        0.0231
     82 H          36.1910   35.8970  279.8190 H       1  UNL1        0.0231
     83 H          36.4050   35.8600  281.5760 H       1  UNL1        0.0231
     84 H          40.1300   39.9800  279.2820 H       1  UNL1        0.0238
     85 H          38.4760   39.4820  278.8570 H       1  UNL1        0.0238
     86 H          39.2790   38.7700  280.2490 H       1  UNL1        0.0238
     87 H          39.7900   37.2920  273.9440 H       1  UNL1        0.0258
     88 H          40.0870   35.6950  273.3120 H       1  UNL1        0.0258
     89 H          41.0720   37.0510  272.7370 H       1  UNL1        0.0258
     90 H          42.3340   32.1700  272.8710 H       1  UNL1        0.0233
     91 H          43.8710   33.0140  273.1700 H       1  UNL1        0.0233
     92 H          42.6390   33.7210  272.1110 H       1  UNL1        0.0233
     93 H          41.5940   29.9380  275.2950 H       1  UNL1        0.0391
     94 H          43.0240   30.4700  276.2260 H       1  UNL1        0.0391
     95 H          42.8450   30.8500  274.5150 H       1  UNL1        0.0391
     96 H          39.9540   30.5510  278.5030 H       1  UNL1        0.0246
     97 H          39.3840   30.5630  276.8170 H       1  UNL1        0.0246
     98 H          40.8930   29.7650  277.2990 H       1  UNL1        0.0246
     99 H          39.9930   33.0980  281.0610 H       1  UNL1        0.0259
    100 H          40.9660   32.1450  279.9890 H       1  UNL1        0.0259
    101 H          41.2150   33.9020  280.0510 H       1  UNL1        0.0259
    102 H          40.2700   35.1180  275.5380 H       1  UNL1        0.2103
    103 H          38.5220   32.6650  276.6190 H       1  UNL1        0.2100
    104 H          38.2420   32.0580  279.9550 H       1  UNL1        0.2104
    105 H          43.9040   39.6340  274.4200 H       1  UNL1        0.0937
    106 H          46.0570   37.4630  274.2350 H       1  UNL1        0.0660
    107 H          46.2170   40.3900  273.3900 H       1  UNL1        0.0490
    108 H          46.1370   37.9400  271.5660 H       1  UNL1        0.0306
    109 H          46.3220   39.6190  271.0280 H       1  UNL1        0.0306
    110 H          44.1010   40.1830  272.0740 H       1  UNL1        0.0595
    111 H          44.1350   39.3960  269.6980 H       1  UNL1        0.0255
    112 H          43.9570   37.7170  270.2620 H       1  UNL1        0.0255
    113 H          42.6640   38.8720  270.5490 H       1  UNL1        0.0255
    114 H          47.1990   39.1150  275.4500 H       1  UNL1        0.2101
    115 H          38.0900   39.2940  276.4670 H       1  UNL1        0.0911
    116 H          38.3540   41.5940  277.3980 H       1  UNL1        0.0343
    117 H          37.2400   41.4430  276.0360 H       1  UNL1        0.0343
    118 H          38.5260   40.2400  272.0380 H       1  UNL1        0.0255
    119 H          40.1630   40.8870  271.7740 H       1  UNL1        0.0255
    120 H          39.9230   39.2120  272.3010 H       1  UNL1        0.0255
    121 H          37.3300   43.8290  275.2340 H       1  UNL1        0.0258
    122 H          38.1890   44.1080  276.7500 H       1  UNL1        0.0258
    123 H          38.9010   44.6630  275.2400 H       1  UNL1        0.0258
    124 H          40.6550   43.1850  273.8930 H       1  UNL1        0.2100
@<TRIPOS>BOND
     1   111    57    1
     2   112    57    1
     3    57   113    1
     4    57    56    1
     5   109    55    1
     6     8    58    1
     7   108    55    1
     8   119    69    1
     9    55    56    1
    10    55    54    1
    11     6    59    1
    12    56   110    1
    13    56    63    1
    14   118    69    1
    15    92    43    1
    16   120    69    1
    17    69    68    1
    18    58     5    1
    19    58     2    1
    20    58    62    1
    21    89    42    1
    22    63    52    1
    23    90    43    1
    24    59     9    1
    25    59    62    1
    26    59     3    1
    27    43    91    1
    28    43    31    1
    29    54    62    1
    30    54   107    1
    31    54    53    1
    32    21    30    1
    33    74   124    1
    34    74    67    1
    35    88    42    1
    36    42    87    1
    37    42    29    1
    38    13    67    1
    39    68    67    1
    40    68    12    1
    41    68    75    1
    42    67    66    1
    43    76    31    1
    44    52    53    1
    45    52   105    1
    46    52    60    1
    47    31    30    1
    48    31    32    1
    49   106    53    1
    50    30    29    1
    51    30    20    1
    52    53    61    1
    53    95    44    1
    54    10    28    1
    55    75    64    1
    56    29    28    1
    57    29    48    1
    58    60    28    1
    59    28    27    1
    60   121    70    1
    61   123    70    1
    62    93    44    1
    63   114    61    1
    64    44    33    1
    65    44    94    1
    66    66    70    1
    67    66    73    1
    68    66    65    1
    69   102    48    1
    70    32    22    1
    71    32    33    1
    72    32    23    1
    73    70   122    1
    74    33    34    1
    75    73    71    1
    76    64    65    1
    77    64   115    1
    78    64    72    1
    79   117    65    1
    80    16    26    1
    81    65   116    1
    82    17    41    1
    83    49   103    1
    84    49    35    1
    85    72    26    1
    86    27    26    1
    87    27    41    1
    88    27    15    1
    89    97    45    1
    90    26    25    1
    91    41    18    1
    92    41    19    1
    93    34    45    1
    94    34    35    1
    95    34    77    1
    96    71     1    1
    97    71     4    1
    98    71     7    1
    99    98    45    1
   100    45    96    1
   101    11    35    1
   102    35    36    1
   103    47    24    2
   104    24    25    1
   105    24    51    1
   106    78    37    1
   107    25    14    1
   108    25    40    1
   109    85    40    1
   110    36    50    1
   111    36    37    1
   112    36    46    1
   113    51    37    1
   114    50   104    1
   115    37    38    1
   116    40    84    1
   117    40    86    1
   118    82    39    1
   119   100    46    1
   120   101    46    1
   121    46    99    1
   122    38    39    1
   123    38    80    1
   124    38    79    1
   125    81    39    1
   126    39    83    1
