@<TRIPOS>MOLECULE
237.62535
 124 126 0 0 0
SMALL
GASTEIGER

@<TRIPOS>ATOM
      1 H          34.4340   34.7120  269.1880 H       1  UNL1        0.0524
      2 H          34.5160   39.0300  267.9080 H       1  UNL1        0.0391
      3 H          37.1690   40.4550  270.8610 H       1  UNL1        0.0391
      4 H          33.7550   33.5030  268.0930 H       1  UNL1        0.0524
      5 H          34.4320   40.6920  268.4650 H       1  UNL1        0.0391
      6 H          37.3310   41.0660  269.2000 H       1  UNL1        0.0391
      7 H          34.6380   33.0020  269.5720 H       1  UNL1        0.0524
      8 H          35.7780   40.1870  267.4260 H       1  UNL1        0.0391
      9 H          35.9280   41.4890  270.1900 H       1  UNL1        0.0391
     10 H          38.9090   34.1820  270.5460 H       1  UNL1        0.0629
     11 H          40.7400   31.1480  273.6170 H       1  UNL1        0.0639
     12 H          38.4290   33.9550  268.4590 H       1  UNL1        0.0621
     13 H          37.9350   32.0680  266.0890 H       1  UNL1        0.0648
     14 H          36.0770   31.7560  272.9970 H       1  UNL1        0.0436
     15 H          38.3000   33.4150  273.3670 H       1  UNL1        0.0349
     16 H          38.7410   31.7770  271.5030 H       1  UNL1        0.0608
     17 H          36.0010   34.4530  271.6360 H       1  UNL1        0.0234
     18 H          36.6530   35.2570  273.0810 H       1  UNL1        0.0234
     19 H          35.8660   33.7190  273.2380 H       1  UNL1        0.0234
     20 H          39.9020   34.6900  274.2360 H       1  UNL1        0.0297
     21 H          40.0930   36.2060  273.3760 H       1  UNL1        0.0297
     22 H          41.6400   34.1630  275.8120 H       1  UNL1        0.0429
     23 H          43.3370   34.4250  275.4920 H       1  UNL1        0.0429
     24 C          37.6680   30.5680  273.6650 C.2     1  UNL1        0.3128
     25 C          36.8910   31.2010  272.5230 C.3     1  UNL1        0.0801
     26 C          37.7390   32.1910  271.6620 C.3     1  UNL1        0.0793
     27 C          37.8870   33.5980  272.3680 C.3     1  UNL1        0.0124
     28 C          38.8810   34.5380  271.5790 C.3     1  UNL1        0.0950
     29 C          40.3610   34.4760  272.1110 C.3     1  UNL1        0.0900
     30 C          40.5170   35.2000  273.4850 C.3     1  UNL1       -0.0181
     31 C          41.9560   35.3590  274.0700 C.3     1  UNL1       -0.0284
     32 C          42.3810   34.1980  275.0020 C.3     1  UNL1        0.0016
     33 N          42.4560   32.9040  274.3060 N.3     1  UNL1       -0.2999
     34 C          42.0750   31.7620  275.1970 C.3     1  UNL1        0.0361
     35 C          41.3570   30.6460  274.3630 C.3     1  UNL1        0.1022
     36 C          40.4230   29.6630  275.1470 C.3     1  UNL1        0.1270
     37 C          39.4670   28.9470  274.1140 C.3     1  UNL1        0.1335
     38 C          38.5720   27.8400  274.7150 C.3     1  UNL1       -0.0157
     39 C          37.8790   27.0050  273.6450 C.3     1  UNL1       -0.0618
     40 C          36.1720   30.0700  271.7830 C.3     1  UNL1       -0.0499
     41 C          36.5260   34.2910  272.5820 C.3     1  UNL1       -0.0576
     42 C          41.3020   35.0980  271.0670 C.3     1  UNL1       -0.0336
     43 C          42.0190   36.6630  274.8850 C.3     1  UNL1       -0.0612
     44 C          43.7540   32.7300  273.6380 C.3     1  UNL1       -0.0124
     45 C          43.2150   31.2350  276.0770 C.3     1  UNL1       -0.0470
     46 C          39.6920   30.3310  276.3160 C.3     1  UNL1       -0.0301
     47 O          37.2830   30.6190  274.8260 O.2     1  UNL1       -0.2504
     48 O          40.7080   33.1000  272.2150 O.3     1  UNL1       -0.3863
     49 O          42.3250   29.8560  273.6440 O.3     1  UNL1       -0.3873
     50 O          41.2960   28.6550  275.7280 O.3     1  UNL1       -0.3826
     51 O          38.7230   29.8380  273.2280 O.3     1  UNL1       -0.4581
     52 C          37.9410   36.3700  270.3450 C.3     1  UNL1        0.1871
     53 C          37.1150   37.6540  270.5870 C.3     1  UNL1        0.1214
     54 C          36.7220   38.3010  269.2360 C.3     1  UNL1        0.0429
     55 C          37.9640   38.4820  268.3570 C.3     1  UNL1       -0.0085
     56 C          38.6870   37.1430  268.2120 C.3     1  UNL1        0.0605
     57 C          39.9650   37.3100  267.4000 C.3     1  UNL1       -0.0385
     58 C          35.1280   39.8730  268.2500 C.3     1  UNL1       -0.0127
     59 C          36.6230   40.6790  269.9400 C.3     1  UNL1       -0.0127
     60 O          38.4420   35.9070  271.6070 O.3     1  UNL1       -0.3423
     61 O          35.9050   37.3870  271.3180 O.3     1  UNL1       -0.3852
     62 N          35.8810   39.5130  269.4540 N.3     1  UNL1       -0.3027
     63 O          39.0570   36.6440  269.4940 O.3     1  UNL1       -0.3457
     64 C          37.5500   31.5390  269.3390 C.3     1  UNL1        0.1627
     65 C          36.4270   31.3460  268.3170 C.3     1  UNL1        0.0298
     66 C          36.2430   32.5470  267.3760 C.3     1  UNL1        0.0991
     67 C          37.6210   32.8820  266.7550 C.3     1  UNL1        0.1098
     68 C          38.6720   33.0710  267.8630 C.3     1  UNL1        0.0874
     69 C          40.0580   33.2850  267.2620 C.3     1  UNL1       -0.0361
     70 C          35.2460   32.1980  266.2570 C.3     1  UNL1       -0.0331
     71 C          34.5980   33.7220  268.7520 C.3     1  UNL1        0.0373
     72 O          37.1180   32.4200  270.3770 O.3     1  UNL1       -0.3468
     73 O          35.8200   33.7670  268.0290 O.3     1  UNL1       -0.3740
     74 O          37.5100   34.0790  265.9700 O.3     1  UNL1       -0.3864
     75 O          38.7660   31.9310  268.7160 O.3     1  UNL1       -0.3456
     76 H          42.6900   35.4680  273.2680 H       1  UNL1        0.0311
     77 H          41.3130   32.1590  275.8730 H       1  UNL1        0.0486
     78 H          40.1370   28.4110  273.4260 H       1  UNL1        0.0764
     79 H          37.8010   28.2620  275.3650 H       1  UNL1        0.0299
     80 H          39.1750   27.1640  275.3310 H       1  UNL1        0.0299
     81 H          37.1880   27.6070  273.0500 H       1  UNL1        0.0231
     82 H          38.6080   26.5480  272.9690 H       1  UNL1        0.0231
     83 H          37.3020   26.2010  274.1120 H       1  UNL1        0.0231
     84 H          35.4700   30.4620  271.0430 H       1  UNL1        0.0238
     85 H          36.8710   29.3850  271.2950 H       1  UNL1        0.0238
     86 H          35.5850   29.4680  272.4870 H       1  UNL1        0.0238
     87 H          41.0860   34.7090  270.0660 H       1  UNL1        0.0258
     88 H          42.3470   34.8300  271.2540 H       1  UNL1        0.0258
     89 H          41.2180   36.1880  271.0390 H       1  UNL1        0.0258
     90 H          43.0180   36.8120  275.3080 H       1  UNL1        0.0233
     91 H          41.2980   36.6520  275.7100 H       1  UNL1        0.0233
     92 H          41.7970   37.5290  274.2510 H       1  UNL1        0.0233
     93 H          43.7920   31.7930  273.0770 H       1  UNL1        0.0391
     94 H          44.5950   32.7540  274.3390 H       1  UNL1        0.0391
     95 H          43.9150   33.5260  272.9040 H       1  UNL1        0.0391
     96 H          42.8390   30.5160  276.8110 H       1  UNL1        0.0246
     97 H          43.9940   30.7330  275.4940 H       1  UNL1        0.0246
     98 H          43.6820   32.0500  276.6390 H       1  UNL1        0.0246
     99 H          38.9340   29.6700  276.7480 H       1  UNL1        0.0259
    100 H          40.3810   30.5410  277.1420 H       1  UNL1        0.0259
    101 H          39.2190   31.2730  276.0280 H       1  UNL1        0.0259
    102 H          41.4710   33.0340  272.8280 H       1  UNL1        0.2103
    103 H          42.5600   29.1330  274.2610 H       1  UNL1        0.2100
    104 H          40.7820   28.1640  276.3950 H       1  UNL1        0.2104
    105 H          37.2990   35.5980  269.9010 H       1  UNL1        0.0937
    106 H          37.7130   38.3430  271.1950 H       1  UNL1        0.0660
    107 H          36.0660   37.5680  268.7420 H       1  UNL1        0.0490
    108 H          38.6440   39.2070  268.8220 H       1  UNL1        0.0306
    109 H          37.6920   38.8660  267.3670 H       1  UNL1        0.0306
    110 H          38.0440   36.4080  267.7140 H       1  UNL1        0.0595
    111 H          39.7480   37.6500  266.3830 H       1  UNL1        0.0255
    112 H          40.6400   38.0310  267.8740 H       1  UNL1        0.0255
    113 H          40.5120   36.3640  267.3450 H       1  UNL1        0.0255
    114 H          35.3630   38.1910  271.1850 H       1  UNL1        0.2101
    115 H          37.7590   30.5560  269.7680 H       1  UNL1        0.0911
    116 H          35.4900   31.1150  268.8320 H       1  UNL1        0.0343
    117 H          36.6810   30.4700  267.7030 H       1  UNL1        0.0343
    118 H          40.3760   32.4040  266.6920 H       1  UNL1        0.0255
    119 H          40.0850   34.1540  266.5990 H       1  UNL1        0.0255
    120 H          40.8010   33.4270  268.0530 H       1  UNL1        0.0255
    121 H          35.6360   31.4090  265.6050 H       1  UNL1        0.0258
    122 H          34.2960   31.8410  266.6690 H       1  UNL1        0.0258
    123 H          35.0150   33.0750  265.6430 H       1  UNL1        0.0258
    124 H          36.9040   34.6500  266.4840 H       1  UNL1        0.2100
@<TRIPOS>BOND
     1   121    70    1
     2   123    70    1
     3    74   124    1
     4    74    67    1
     5    13    67    1
     6    70   122    1
     7    70    66    1
     8   111    57    1
     9   119    69    1
    10   118    69    1
    11    67    66    1
    12    67    68    1
    13    69    68    1
    14    69   120    1
    15   113    57    1
    16   109    55    1
    17    66    73    1
    18    66    65    1
    19    57   112    1
    20    57    56    1
    21     8    58    1
    22   117    65    1
    23   110    56    1
    24    68    12    1
    25    68    75    1
    26     2    58    1
    27    73    71    1
    28     4    71    1
    29    56    55    1
    30    56    63    1
    31    58     5    1
    32    58    62    1
    33    65   116    1
    34    65    64    1
    35    55   108    1
    36    55    54    1
    37    75    64    1
    38   107    54    1
    39    71     1    1
    40    71     7    1
    41     6    59    1
    42    54    62    1
    43    54    53    1
    44    64   115    1
    45    64    72    1
    46    62    59    1
    47    63    52    1
    48   105    52    1
    49    59     9    1
    50    59     3    1
    51    87    42    1
    52    52    53    1
    53    52    60    1
    54    72    26    1
    55    10    28    1
    56    53   106    1
    57    53    61    1
    58    89    42    1
    59    84    40    1
    60    42    88    1
    61    42    29    1
    62   114    61    1
    63    85    40    1
    64    16    26    1
    65    28    60    1
    66    28    29    1
    67    28    27    1
    68    17    41    1
    69    26    27    1
    70    26    25    1
    71    40    86    1
    72    40    25    1
    73    29    48    1
    74    29    30    1
    75    48   102    1
    76    27    41    1
    77    27    15    1
    78    25    14    1
    79    25    24    1
    80    41    18    1
    81    41    19    1
    82    95    44    1
    83    82    39    1
    84    81    39    1
    85    93    44    1
    86    51    24    1
    87    51    37    1
    88    76    31    1
    89    21    30    1
    90    78    37    1
    91    30    31    1
    92    30    20    1
    93    11    35    1
    94    44    33    1
    95    44    94    1
    96    49   103    1
    97    49    35    1
    98    39    83    1
    99    39    38    1
   100    24    47    2
   101    31    43    1
   102    31    32    1
   103    37    38    1
   104    37    36    1
   105    92    43    1
   106    33    32    1
   107    33    34    1
   108    35    36    1
   109    35    34    1
   110    38    80    1
   111    38    79    1
   112    43    90    1
   113    43    91    1
   114    32    23    1
   115    32    22    1
   116    36    50    1
   117    36    46    1
   118    34    77    1
   119    34    45    1
   120    97    45    1
   121    50   104    1
   122   101    46    1
   123    45    98    1
   124    45    96    1
   125    46    99    1
   126    46   100    1
