@<TRIPOS>MOLECULE
237.00861
 124 126 0 0 0
SMALL
GASTEIGER

@<TRIPOS>ATOM
      1 H          36.8480   36.6490  270.5250 H       1  UNL1        0.0524
      2 H          35.3780   40.5520  271.6190 H       1  UNL1        0.0391
      3 H          34.5810   39.8770  275.7060 H       1  UNL1        0.0391
      4 H          37.7230   36.3570  269.0190 H       1  UNL1        0.0524
      5 H          34.3220   41.6260  272.5180 H       1  UNL1        0.0391
      6 H          35.5570   41.2900  275.2480 H       1  UNL1        0.0391
      7 H          37.2610   34.9910  270.0870 H       1  UNL1        0.0524
      8 H          36.0710   41.6730  272.8120 H       1  UNL1        0.0391
      9 H          33.8350   41.2070  274.8490 H       1  UNL1        0.0391
     10 H          38.3730   34.7780  274.3690 H       1  UNL1        0.0629
     11 H          36.3530   27.9060  276.9010 H       1  UNL1        0.0639
     12 H          39.8520   35.5770  273.1170 H       1  UNL1        0.0621
     13 H          42.0510   35.3790  270.9870 H       1  UNL1        0.0648
     14 H          36.1310   31.1900  272.9140 H       1  UNL1        0.0436
     15 H          36.3360   32.6100  274.7140 H       1  UNL1        0.0349
     16 H          38.6190   32.2860  273.7230 H       1  UNL1        0.0608
     17 H          35.9030   34.6770  272.5150 H       1  UNL1        0.0234
     18 H          34.8470   34.3920  273.9160 H       1  UNL1        0.0234
     19 H          35.0470   33.1480  272.7060 H       1  UNL1        0.0234
     20 H          36.3170   32.7130  276.7320 H       1  UNL1        0.0297
     21 H          36.1630   34.3110  277.4020 H       1  UNL1        0.0297
     22 H          35.3260   31.9830  278.8880 H       1  UNL1        0.0429
     23 H          36.4450   31.6360  280.1740 H       1  UNL1        0.0429
     24 C          37.9330   30.1320  272.7040 C.2     1  UNL1        0.3128
     25 C          37.0990   31.3710  272.4300 C.3     1  UNL1        0.0801
     26 C          37.7750   32.6120  273.1070 C.3     1  UNL1        0.0793
     27 C          36.7680   33.3600  274.0470 C.3     1  UNL1        0.0124
     28 C          37.4910   34.4500  274.9240 C.3     1  UNL1        0.0950
     29 C          38.0290   33.9500  276.3260 C.3     1  UNL1        0.0900
     30 C          36.8730   33.4860  277.2580 C.3     1  UNL1       -0.0181
     31 C          37.2840   32.9080  278.6400 C.3     1  UNL1       -0.0284
     32 C          36.3750   31.7240  279.0810 C.3     1  UNL1        0.0016
     33 N          36.7540   30.4310  278.4610 N.3     1  UNL1       -0.2999
     34 C          35.7880   29.9650  277.4380 C.3     1  UNL1        0.0361
     35 C          36.3380   28.8930  276.4230 C.3     1  UNL1        0.1022
     36 C          37.7470   29.1670  275.7850 C.3     1  UNL1        0.1270
     37 C          37.9750   28.4690  274.3930 C.3     1  UNL1        0.1335
     38 C          37.6020   26.9820  274.3380 C.3     1  UNL1       -0.0157
     39 C          37.9980   26.3510  273.0080 C.3     1  UNL1       -0.0618
     40 C          36.8460   31.4830  270.9300 C.3     1  UNL1       -0.0499
     41 C          35.5830   33.9320  273.2480 C.3     1  UNL1       -0.0576
     42 C          38.8520   35.0670  276.9880 C.3     1  UNL1       -0.0336
     43 C          37.1870   34.0020  279.7170 C.3     1  UNL1       -0.0612
     44 C          36.9980   29.4280  279.5050 C.3     1  UNL1       -0.0124
     45 C          34.4540   29.4590  278.0360 C.3     1  UNL1       -0.0470
     46 C          38.9020   28.7760  276.7210 C.3     1  UNL1       -0.0301
     47 O          39.1030   29.9960  272.3700 O.2     1  UNL1       -0.2504
     48 O          38.9270   32.8460  276.1550 O.3     1  UNL1       -0.3863
     49 O          35.3420   28.8100  275.3800 O.3     1  UNL1       -0.3873
     50 O          37.8440   30.5720  275.5060 O.3     1  UNL1       -0.3826
     51 O          37.2070   29.2070  273.4040 O.3     1  UNL1       -0.4581
     52 C          36.9730   36.7170  274.3510 C.3     1  UNL1        0.1871
     53 C          35.7910   37.7120  274.3710 C.3     1  UNL1        0.1214
     54 C          36.1930   39.0310  273.6650 C.3     1  UNL1        0.0429
     55 C          37.5080   39.5630  274.2460 C.3     1  UNL1       -0.0085
     56 C          38.5760   38.4700  274.1680 C.3     1  UNL1        0.0605
     57 C          39.8840   38.9470  274.7840 C.3     1  UNL1       -0.0385
     58 C          35.2250   41.0100  272.6030 C.3     1  UNL1       -0.0127
     59 C          34.7570   40.6180  274.9200 C.3     1  UNL1       -0.0127
     60 O          36.6280   35.5770  275.1560 O.3     1  UNL1       -0.3423
     61 O          34.6350   37.1840  273.6970 O.3     1  UNL1       -0.3852
     62 N          35.0460   39.9830  273.6330 N.3     1  UNL1       -0.3027
     63 O          38.1500   37.3200  274.8960 O.3     1  UNL1       -0.3457
     64 C          39.5780   33.3010  271.6730 C.3     1  UNL1        0.1627
     65 C          39.7800   33.9260  270.2900 C.3     1  UNL1        0.0298
     66 C          39.9730   35.4500  270.3250 C.3     1  UNL1        0.0991
     67 C          41.0910   35.7670  271.3510 C.3     1  UNL1        0.1098
     68 C          40.7580   35.1220  272.7070 C.3     1  UNL1        0.0874
     69 C          41.8770   35.3490  273.7190 C.3     1  UNL1       -0.0361
     70 C          40.3900   35.9670  268.9370 C.3     1  UNL1       -0.0331
     71 C          37.6120   36.0240  270.0530 C.3     1  UNL1        0.0373
     72 O          38.2590   33.5690  272.1440 O.3     1  UNL1       -0.3468
     73 O          38.8190   36.1950  270.7830 O.3     1  UNL1       -0.3740
     74 O          41.2160   37.1890  271.4970 O.3     1  UNL1       -0.3864
     75 O          40.5820   33.7090  272.5980 O.3     1  UNL1       -0.3456
     76 H          38.3220   32.5530  278.6150 H       1  UNL1        0.0311
     77 H          35.5110   30.8260  276.8190 H       1  UNL1        0.0486
     78 H          39.0430   28.5470  274.1490 H       1  UNL1        0.0764
     79 H          36.5230   26.8420  274.4560 H       1  UNL1        0.0299
     80 H          38.0990   26.4380  275.1480 H       1  UNL1        0.0299
     81 H          37.4750   26.8240  272.1710 H       1  UNL1        0.0231
     82 H          39.0750   26.4410  272.8360 H       1  UNL1        0.0231
     83 H          37.7430   25.2860  273.0050 H       1  UNL1        0.0231
     84 H          36.2790   32.3860  270.6870 H       1  UNL1        0.0238
     85 H          37.7760   31.4890  270.3540 H       1  UNL1        0.0238
     86 H          36.2670   30.6210  270.5800 H       1  UNL1        0.0238
     87 H          39.6180   35.4430  276.3000 H       1  UNL1        0.0258
     88 H          39.4040   34.6940  277.8570 H       1  UNL1        0.0258
     89 H          38.2260   35.9090  277.2990 H       1  UNL1        0.0258
     90 H          37.5340   33.6230  280.6850 H       1  UNL1        0.0233
     91 H          36.1530   34.3430  279.8410 H       1  UNL1        0.0233
     92 H          37.7990   34.8740  279.4760 H       1  UNL1        0.0233
     93 H          37.2530   28.4530  279.0790 H       1  UNL1        0.0391
     94 H          36.1370   29.2930  280.1700 H       1  UNL1        0.0391
     95 H          37.8540   29.7310  280.1190 H       1  UNL1        0.0391
     96 H          33.7010   29.3270  277.2510 H       1  UNL1        0.0246
     97 H          34.5770   28.4930  278.5370 H       1  UNL1        0.0246
     98 H          34.0330   30.1650  278.7580 H       1  UNL1        0.0246
     99 H          39.8670   28.8840  276.2120 H       1  UNL1        0.0259
    100 H          38.9760   29.4320  277.5900 H       1  UNL1        0.0259
    101 H          38.8140   27.7410  277.0630 H       1  UNL1        0.0259
    102 H          39.6530   33.1410  275.5740 H       1  UNL1        0.2103
    103 H          35.5710   29.5070  274.7340 H       1  UNL1        0.2100
    104 H          38.0950   31.0530  276.3250 H       1  UNL1        0.2104
    105 H          37.1640   36.3900  273.3210 H       1  UNL1        0.0937
    106 H          35.5040   37.8930  275.4130 H       1  UNL1        0.0660
    107 H          36.3800   38.7540  272.6160 H       1  UNL1        0.0490
    108 H          37.3630   39.8460  275.2960 H       1  UNL1        0.0306
    109 H          37.8460   40.4510  273.7020 H       1  UNL1        0.0306
    110 H          38.7610   38.1860  273.1250 H       1  UNL1        0.0595
    111 H          40.2790   39.8190  274.2540 H       1  UNL1        0.0255
    112 H          39.7500   39.2070  275.8400 H       1  UNL1        0.0255
    113 H          40.6330   38.1500  274.7520 H       1  UNL1        0.0255
    114 H          34.0640   37.9650  273.5530 H       1  UNL1        0.2101
    115 H          39.6990   32.2230  271.5440 H       1  UNL1        0.0911
    116 H          38.9410   33.6560  269.6400 H       1  UNL1        0.0343
    117 H          40.6840   33.4800  269.8530 H       1  UNL1        0.0343
    118 H          42.8080   34.8790  273.3830 H       1  UNL1        0.0255
    119 H          42.0650   36.4120  273.8890 H       1  UNL1        0.0255
    120 H          41.6210   34.8850  274.6780 H       1  UNL1        0.0255
    121 H          41.3750   35.5870  268.6470 H       1  UNL1        0.0258
    122 H          39.6790   35.6510  268.1660 H       1  UNL1        0.0258
    123 H          40.4170   37.0620  268.9120 H       1  UNL1        0.0258
    124 H          40.2970   37.5210  271.4600 H       1  UNL1        0.2100
@<TRIPOS>BOND
     1   122    70    1
     2   121    70    1
     3   123    70    1
     4    70    66    1
     5     4    71    1
     6   116    65    1
     7   117    65    1
     8    71     7    1
     9    71     1    1
    10    71    73    1
    11    65    66    1
    12    65    64    1
    13    66    73    1
    14    66    67    1
    15    85    40    1
    16    86    40    1
    17    84    40    1
    18    40    25    1
    19    13    67    1
    20    67    74    1
    21    67    68    1
    22   124    74    1
    23   115    64    1
    24     2    58    1
    25    64    72    1
    26    64    75    1
    27    72    26    1
    28    81    39    1
    29    47    24    2
    30    25    24    1
    31    25    14    1
    32    25    26    1
    33    17    41    1
    34     5    58    1
    35    75    68    1
    36    58     8    1
    37    58    62    1
    38   107    54    1
    39    24    51    1
    40    19    41    1
    41    68    12    1
    42    68    69    1
    43    82    39    1
    44    83    39    1
    45    39    38    1
    46    26    16    1
    47    26    27    1
    48   110    56    1
    49    41    18    1
    50    41    27    1
    51   105    52    1
    52   118    69    1
    53    51    37    1
    54   114    61    1
    55    62    54    1
    56    62    59    1
    57    54    55    1
    58    54    53    1
    59    61    53    1
    60   109    55    1
    61    69   119    1
    62    69   120    1
    63    27    15    1
    64    27    28    1
    65    78    37    1
    66    56    55    1
    67    56    57    1
    68    56    63    1
    69    55   108    1
    70   111    57    1
    71    38    37    1
    72    38    79    1
    73    38    80    1
    74    52    53    1
    75    52    63    1
    76    52    60    1
    77    10    28    1
    78    53   106    1
    79    37    36    1
    80   103    49    1
    81   113    57    1
    82    57   112    1
    83     9    59    1
    84    59     6    1
    85    59     3    1
    86    28    60    1
    87    28    29    1
    88    49    35    1
    89    50    36    1
    90    50   104    1
    91   102    48    1
    92    36    35    1
    93    36    46    1
    94    48    29    1
    95    99    46    1
    96    87    42    1
    97    29    42    1
    98    29    30    1
    99    35    11    1
   100    35    34    1
   101    46   101    1
   102    46   100    1
   103    20    30    1
   104    77    34    1
   105    42    89    1
   106    42    88    1
   107    96    45    1
   108    30    21    1
   109    30    31    1
   110    34    45    1
   111    34    33    1
   112    45    97    1
   113    45    98    1
   114    33    32    1
   115    33    44    1
   116    76    31    1
   117    31    32    1
   118    31    43    1
   119    22    32    1
   120    93    44    1
   121    32    23    1
   122    92    43    1
   123    44    95    1
   124    44    94    1
   125    43    91    1
   126    43    90    1
