@<TRIPOS>MOLECULE
238.16796
 124 126 0 0 0
SMALL
GASTEIGER

@<TRIPOS>ATOM
      1 H          33.7000   30.9320  268.8220 H       1  UNL1        0.0524
      2 H          36.1770   35.9640  265.5120 H       1  UNL1        0.0391
      3 H          38.7340   37.5830  268.4500 H       1  UNL1        0.0391
      4 H          33.1740   29.3270  268.3040 H       1  UNL1        0.0524
      5 H          36.4590   37.6930  265.6040 H       1  UNL1        0.0391
      6 H          39.2490   37.6350  266.7500 H       1  UNL1        0.0391
      7 H          34.0910   29.5380  269.8310 H       1  UNL1        0.0524
      8 H          37.7420   36.6300  264.9950 H       1  UNL1        0.0391
      9 H          37.8910   38.6170  267.3190 H       1  UNL1        0.0391
     10 H          38.8410   31.2910  270.1050 H       1  UNL1        0.0629
     11 H          39.3370   31.1090  275.1830 H       1  UNL1        0.0639
     12 H          37.7800   30.3560  268.3280 H       1  UNL1        0.0621
     13 H          37.4840   27.6960  266.8200 H       1  UNL1        0.0648
     14 H          36.1660   30.4360  273.5900 H       1  UNL1        0.0436
     15 H          37.8210   31.8660  272.8860 H       1  UNL1        0.0349
     16 H          38.3830   29.5020  271.8590 H       1  UNL1        0.0608
     17 H          36.0830   32.1040  270.3820 H       1  UNL1        0.0234
     18 H          36.3960   33.3400  271.6140 H       1  UNL1        0.0234
     19 H          35.4520   31.9170  272.0210 H       1  UNL1        0.0234
     20 H          39.9070   33.5320  272.9830 H       1  UNL1        0.0297
     21 H          40.8070   33.8460  271.5110 H       1  UNL1        0.0297
     22 H          42.9070   32.9250  275.1110 H       1  UNL1        0.0429
     23 H          41.9480   31.6030  274.5490 H       1  UNL1        0.0429
     24 C          37.5030   28.8750  274.0970 C.2     1  UNL1        0.3128
     25 C          36.5820   29.5480  273.0980 C.3     1  UNL1        0.0801
     26 C          37.4020   29.9860  271.8510 C.3     1  UNL1        0.0793
     27 C          37.6060   31.5400  271.8600 C.3     1  UNL1        0.0124
     28 C          38.8340   31.9480  270.9810 C.3     1  UNL1        0.0950
     29 C          40.2280   31.7810  271.7340 C.3     1  UNL1        0.0900
     30 C          40.7040   33.1350  272.3420 C.3     1  UNL1       -0.0181
     31 C          42.0430   33.1690  273.1290 C.3     1  UNL1       -0.0284
     32 C          41.9610   32.6910  274.6030 C.3     1  UNL1        0.0016
     33 N          40.8250   33.1650  275.4090 N.3     1  UNL1       -0.2999
     34 C          40.4980   32.2940  276.5810 C.3     1  UNL1        0.0361
     35 C          39.8760   30.9240  276.1180 C.3     1  UNL1        0.1022
     36 C          38.8800   30.2260  277.1130 C.3     1  UNL1        0.1270
     37 C          38.2220   28.9920  276.3880 C.3     1  UNL1        0.1335
     38 C          37.3440   28.1290  277.3190 C.3     1  UNL1       -0.0157
     39 C          36.8540   26.8450  276.6600 C.3     1  UNL1       -0.0618
     40 C          35.4080   28.6060  272.8390 C.3     1  UNL1       -0.0499
     41 C          36.3130   32.2630  271.4400 C.3     1  UNL1       -0.0576
     42 C          41.2670   31.2400  270.7380 C.3     1  UNL1       -0.0336
     43 C          42.6830   34.5610  273.0050 C.3     1  UNL1       -0.0612
     44 C          40.9590   34.5670  275.8030 C.3     1  UNL1       -0.0124
     45 C          41.6670   32.1360  277.5650 C.3     1  UNL1       -0.0470
     46 C          37.8140   31.2030  277.6360 C.3     1  UNL1       -0.0301
     47 O          38.1680   27.8750  273.8620 O.2     1  UNL1       -0.2504
     48 O          40.0870   30.7980  272.7620 O.3     1  UNL1       -0.3863
     49 O          40.9280   29.9760  275.8350 O.3     1  UNL1       -0.3873
     50 O          39.6610   29.7540  278.2320 O.3     1  UNL1       -0.3826
     51 O          37.3980   29.4890  275.3100 O.3     1  UNL1       -0.4581
     52 C          38.4860   33.4640  269.1440 C.3     1  UNL1        0.1871
     53 C          37.9890   34.9040  268.8860 C.3     1  UNL1        0.1214
     54 C          37.9470   35.1970  267.3670 C.3     1  UNL1        0.0429
     55 C          39.2930   34.8400  266.7250 C.3     1  UNL1       -0.0085
     56 C          39.6520   33.3920  267.0670 C.3     1  UNL1        0.0605
     57 C          41.0110   33.0240  266.4860 C.3     1  UNL1       -0.0385
     58 C          36.9410   36.7170  265.7360 C.3     1  UNL1       -0.0127
     59 C          38.3800   37.6400  267.4170 C.3     1  UNL1       -0.0127
     60 O          38.6830   33.3120  270.5530 O.3     1  UNL1       -0.3423
     61 O          36.6670   35.1170  269.4140 O.3     1  UNL1       -0.3852
     62 N          37.4280   36.5710  267.1100 N.3     1  UNL1       -0.3027
     63 O          39.7300   33.2280  268.4810 O.3     1  UNL1       -0.3457
     64 C          37.1980   28.4030  270.0540 C.3     1  UNL1        0.1627
     65 C          36.0800   27.7300  269.2530 C.3     1  UNL1        0.0298
     66 C          35.7610   28.4430  267.9270 C.3     1  UNL1        0.0991
     67 C          37.0880   28.6620  267.1570 C.3     1  UNL1        0.1098
     68 C          38.1220   29.3500  268.0630 C.3     1  UNL1        0.0874
     69 C          39.4620   29.4980  267.3460 C.3     1  UNL1       -0.0361
     70 C          34.8130   27.5820  267.0740 C.3     1  UNL1       -0.0331
     71 C          33.9800   29.8740  268.7990 C.3     1  UNL1        0.0373
     72 O          36.7300   29.6230  270.6280 O.3     1  UNL1       -0.3468
     73 O          35.1970   29.7660  268.0770 O.3     1  UNL1       -0.3740
     74 O          36.8390   29.4680  265.9950 O.3     1  UNL1       -0.3864
     75 O          38.3610   28.5940  269.2530 O.3     1  UNL1       -0.3456
     76 H          42.7540   32.4960  272.6370 H       1  UNL1        0.0311
     77 H          39.7050   32.8300  277.1090 H       1  UNL1        0.0486
     78 H          39.0280   28.3480  276.0110 H       1  UNL1        0.0764
     79 H          36.4560   28.6890  277.6330 H       1  UNL1        0.0299
     80 H          37.9030   27.8530  278.2190 H       1  UNL1        0.0299
     81 H          36.1790   27.0550  275.8260 H       1  UNL1        0.0231
     82 H          37.6930   26.2470  276.2910 H       1  UNL1        0.0231
     83 H          36.3020   26.2390  277.3860 H       1  UNL1        0.0231
     84 H          34.6820   29.0570  272.1560 H       1  UNL1        0.0238
     85 H          35.7340   27.6460  272.4260 H       1  UNL1        0.0238
     86 H          34.8840   28.3840  273.7750 H       1  UNL1        0.0238
     87 H          40.9090   30.3120  270.2770 H       1  UNL1        0.0258
     88 H          42.2040   30.9670  271.2340 H       1  UNL1        0.0258
     89 H          41.4910   31.9600  269.9470 H       1  UNL1        0.0258
     90 H          43.5550   34.6590  273.6600 H       1  UNL1        0.0233
     91 H          41.9820   35.3680  273.2300 H       1  UNL1        0.0233
     92 H          43.0280   34.7210  271.9770 H       1  UNL1        0.0233
     93 H          41.9260   34.7840  276.2680 H       1  UNL1        0.0391
     94 H          40.1720   34.8630  276.5070 H       1  UNL1        0.0391
     95 H          40.8250   35.2260  274.9440 H       1  UNL1        0.0391
     96 H          41.3520   31.5940  278.4620 H       1  UNL1        0.0246
     97 H          42.5110   31.5950  277.1260 H       1  UNL1        0.0246
     98 H          42.0350   33.1090  277.9060 H       1  UNL1        0.0246
     99 H          37.0630   30.6910  278.2450 H       1  UNL1        0.0259
    100 H          38.2490   31.9470  278.3110 H       1  UNL1        0.0259
    101 H          37.3000   31.7180  276.8190 H       1  UNL1        0.0259
    102 H          40.9610   30.5750  273.1250 H       1  UNL1        0.2103
    103 H          41.1590   29.5910  276.7050 H       1  UNL1        0.2100
    104 H          39.0500   29.5550  278.9640 H       1  UNL1        0.2104
    105 H          37.7300   32.7460  268.8020 H       1  UNL1        0.0937
    106 H          38.6580   35.6010  269.4040 H       1  UNL1        0.0660
    107 H          37.1900   34.5100  266.9580 H       1  UNL1        0.0490
    108 H          40.0760   35.5030  267.1130 H       1  UNL1        0.0306
    109 H          39.2530   34.9670  265.6380 H       1  UNL1        0.0306
    110 H          38.8980   32.7020  266.6670 H       1  UNL1        0.0595
    111 H          41.0140   33.1090  265.3950 H       1  UNL1        0.0255
    112 H          41.7990   33.6670  266.8910 H       1  UNL1        0.0255
    113 H          41.2780   31.9970  266.7560 H       1  UNL1        0.0255
    114 H          36.3670   35.9440  268.9860 H       1  UNL1        0.2101
    115 H          37.4790   27.7100  270.8570 H       1  UNL1        0.0911
    116 H          35.1820   27.6470  269.8730 H       1  UNL1        0.0343
    117 H          36.4080   26.7090  269.0180 H       1  UNL1        0.0343
    118 H          39.8770   28.5180  267.0860 H       1  UNL1        0.0255
    119 H          39.3700   30.0930  266.4330 H       1  UNL1        0.0255
    120 H          40.1930   29.9830  268.0010 H       1  UNL1        0.0255
    121 H          35.2930   26.6500  266.7570 H       1  UNL1        0.0258
    122 H          33.9110   27.3100  267.6330 H       1  UNL1        0.0258
    123 H          34.4800   28.1230  266.1810 H       1  UNL1        0.0258
    124 H          36.1910   30.1380  266.2980 H       1  UNL1        0.2100
@<TRIPOS>BOND
     1     8    58    1
     2   111    57    1
     3     2    58    1
     4     5    58    1
     5   109    55    1
     6    58    62    1
     7    74   124    1
     8    74    67    1
     9   123    70    1
    10   119    69    1
    11    57   113    1
    12    57   112    1
    13    57    56    1
    14   110    56    1
    15    55    56    1
    16    55   108    1
    17    55    54    1
    18     6    59    1
    19   121    70    1
    20    13    67    1
    21   107    54    1
    22    56    63    1
    23    70   122    1
    24    70    66    1
    25   118    69    1
    26    62    54    1
    27    62    59    1
    28    67    66    1
    29    67    68    1
    30     9    59    1
    31    69   120    1
    32    69    68    1
    33    54    53    1
    34    59     3    1
    35    66    73    1
    36    66    65    1
    37    68    12    1
    38    68    75    1
    39    73    71    1
    40     4    71    1
    41    63    52    1
    42    71     1    1
    43    71     7    1
    44   105    52    1
    45    53    52    1
    46    53   106    1
    47    53    61    1
    48   114    61    1
    49   117    65    1
    50    52    60    1
    51    75    64    1
    52    65   116    1
    53    65    64    1
    54    89    42    1
    55    64    72    1
    56    64   115    1
    57    10    28    1
    58    87    42    1
    59    17    41    1
    60    60    28    1
    61    72    26    1
    62    42    88    1
    63    42    29    1
    64    28    29    1
    65    28    27    1
    66    41    18    1
    67    41    27    1
    68    41    19    1
    69    21    30    1
    70    29    30    1
    71    29    48    1
    72    26    16    1
    73    26    27    1
    74    26    25    1
    75    27    15    1
    76    92    43    1
    77    84    40    1
    78    30    20    1
    79    30    31    1
    80    85    40    1
    81    76    31    1
    82    48   102    1
    83    40    25    1
    84    40    86    1
    85    43    31    1
    86    43    91    1
    87    43    90    1
    88    25    14    1
    89    25    24    1
    90    31    32    1
    91    47    24    2
    92    24    51    1
    93    23    32    1
    94    32    22    1
    95    32    33    1
    96    95    44    1
    97    11    35    1
    98    51    37    1
    99    33    44    1
   100    33    34    1
   101    44    93    1
   102    44    94    1
   103    81    39    1
   104    49    35    1
   105    49   103    1
   106    78    37    1
   107    35    34    1
   108    35    36    1
   109    82    39    1
   110    37    36    1
   111    37    38    1
   112    34    77    1
   113    34    45    1
   114    39    38    1
   115    39    83    1
   116   101    46    1
   117    36    46    1
   118    36    50    1
   119    97    45    1
   120    38    79    1
   121    38    80    1
   122    45    98    1
   123    45    96    1
   124    46    99    1
   125    46   100    1
   126    50   104    1
