@<TRIPOS>MOLECULE
228.88705
 124 126 0 0 0
SMALL
GASTEIGER

@<TRIPOS>ATOM
      1 H          32.7080   31.3590  277.0230 H       1  UNL1        0.0524
      2 H          28.3530   31.6410  277.0960 H       1  UNL1        0.0391
      3 H          27.8560   33.5940  273.3910 H       1  UNL1        0.0391
      4 H          33.4610   30.3240  278.2400 H       1  UNL1        0.0524
      5 H          27.0000   32.7250  276.8270 H       1  UNL1        0.0391
      6 H          26.6940   32.3310  273.8540 H       1  UNL1        0.0391
      7 H          34.4320   31.0070  276.8950 H       1  UNL1        0.0524
      8 H          27.0120   31.1330  276.0450 H       1  UNL1        0.0391
      9 H          26.7480   33.8760  274.7140 H       1  UNL1        0.0391
     10 H          33.4450   30.4050  272.4110 H       1  UNL1        0.0629
     11 H          37.5240   31.4150  269.9530 H       1  UNL1        0.0639
     12 H          33.0740   28.7790  273.8120 H       1  UNL1        0.0621
     13 H          33.8910   26.3470  275.5000 H       1  UNL1        0.0648
     14 H          37.0910   32.7430  273.2830 H       1  UNL1        0.0436
     15 H          35.2490   32.7380  272.0350 H       1  UNL1        0.0349
     16 H          35.9000   30.2960  272.4520 H       1  UNL1        0.0608
     17 H          33.7670   32.5050  274.6970 H       1  UNL1        0.0234
     18 H          33.6600   33.8420  273.5360 H       1  UNL1        0.0234
     19 H          35.1680   33.5280  274.3720 H       1  UNL1        0.0234
     20 H          34.2650   33.4210  270.1660 H       1  UNL1        0.0297
     21 H          32.5480   33.0850  270.0680 H       1  UNL1        0.0297
     22 H          35.3630   33.9690  268.1200 H       1  UNL1        0.0429
     23 H          34.9970   33.2160  266.5840 H       1  UNL1        0.0429
     24 C          38.2360   31.0420  272.8110 C.2     1  UNL1        0.3128
     25 C          37.1210   31.6950  273.6110 C.3     1  UNL1        0.0801
     26 C          35.7590   31.0240  273.2590 C.3     1  UNL1        0.0793
     27 C          34.7320   32.1060  272.7670 C.3     1  UNL1        0.0124
     28 C          33.5190   31.4310  272.0380 C.3     1  UNL1        0.0950
     29 C          33.7290   31.3260  270.4770 C.3     1  UNL1        0.0900
     30 C          33.5340   32.7050  269.7720 C.3     1  UNL1       -0.0181
     31 C          33.6080   32.7520  268.2140 C.3     1  UNL1       -0.0284
     32 C          35.0320   33.0260  267.6650 C.3     1  UNL1        0.0016
     33 N          35.9900   31.9470  267.9590 N.3     1  UNL1       -0.2999
     34 C          37.3970   32.4600  268.0720 C.3     1  UNL1        0.0361
     35 C          38.2020   31.6140  269.1170 C.3     1  UNL1        0.1022
     36 C          39.5130   32.2540  269.7030 C.3     1  UNL1        0.1270
     37 C          39.8350   31.5310  271.0660 C.3     1  UNL1        0.1335
     38 C          41.2380   31.8500  271.6180 C.3     1  UNL1       -0.0157
     39 C          41.5770   31.0670  272.8800 C.3     1  UNL1       -0.0618
     40 C          37.5090   31.7090  275.0870 C.3     1  UNL1       -0.0499
     41 C          34.3040   33.0400  273.9100 C.3     1  UNL1       -0.0576
     42 C          32.7520   30.2850  269.9090 C.3     1  UNL1       -0.0336
     43 C          32.6870   33.8760  267.7090 C.3     1  UNL1       -0.0612
     44 C          35.8450   30.8360  267.0060 C.3     1  UNL1       -0.0124
     45 C          38.1210   32.6200  266.7290 C.3     1  UNL1       -0.0470
     46 C          39.4040   33.7750  269.8990 C.3     1  UNL1       -0.0301
     47 O          38.5640   29.8690  272.8910 O.2     1  UNL1       -0.2504
     48 O          35.0470   30.8250  270.2630 O.3     1  UNL1       -0.3863
     49 O          38.5620   30.3370  268.5570 O.3     1  UNL1       -0.3873
     50 O          40.5620   31.9990  268.7420 O.3     1  UNL1       -0.3826
     51 O          38.8420   31.9750  272.0240 O.3     1  UNL1       -0.4581
     52 C          31.4370   31.4260  273.2110 C.3     1  UNL1        0.1871
     53 C          30.3820   32.4100  273.7640 C.3     1  UNL1        0.1214
     54 C          29.3340   31.6410  274.6070 C.3     1  UNL1        0.0429
     55 C          28.7690   30.4640  273.8020 C.3     1  UNL1       -0.0085
     56 C          29.9190   29.5900  273.2990 C.3     1  UNL1        0.0605
     57 C          29.3930   28.4490  272.4380 C.3     1  UNL1       -0.0385
     58 C          27.6390   31.9820  276.3370 C.3     1  UNL1       -0.0127
     59 C          27.3660   33.1060  274.2380 C.3     1  UNL1       -0.0127
     60 O          32.2950   32.1330  272.3040 O.3     1  UNL1       -0.3423
     61 O          30.9720   33.4190  274.6020 O.3     1  UNL1       -0.3852
     62 N          28.3390   32.5820  275.1980 N.3     1  UNL1       -0.3027
     63 O          30.8040   30.3630  272.4930 O.3     1  UNL1       -0.3457
     64 C          35.6370   29.0120  274.5780 C.3     1  UNL1        0.1627
     65 C          35.4570   28.6070  276.0430 C.3     1  UNL1        0.0298
     66 C          33.9950   28.3200  276.4240 C.3     1  UNL1        0.0991
     67 C          33.4070   27.3260  275.3900 C.3     1  UNL1        0.1098
     68 C          33.6340   27.8510  273.9620 C.3     1  UNL1        0.0874
     69 C          33.1420   26.8500  272.9210 C.3     1  UNL1       -0.0361
     70 C          33.9240   27.6980  277.8300 C.3     1  UNL1       -0.0331
     71 C          33.4660   30.5860  277.1800 C.3     1  UNL1        0.0373
     72 O          35.1730   30.3480  274.3870 O.3     1  UNL1       -0.3468
     73 O          33.1180   29.4710  276.3710 O.3     1  UNL1       -0.3740
     74 O          32.0030   27.1570  275.6400 O.3     1  UNL1       -0.3864
     75 O          35.0190   28.0780  273.7020 O.3     1  UNL1       -0.3456
     76 H          33.2200   31.8260  267.7830 H       1  UNL1        0.0311
     77 H          37.3130   33.4590  268.5120 H       1  UNL1        0.0486
     78 H          39.7750   30.4460  270.9050 H       1  UNL1        0.0764
     79 H          41.3200   32.9140  271.8630 H       1  UNL1        0.0299
     80 H          41.9990   31.6210  270.8650 H       1  UNL1        0.0299
     81 H          40.9260   31.3490  273.7130 H       1  UNL1        0.0231
     82 H          41.4840   29.9890  272.7120 H       1  UNL1        0.0231
     83 H          42.6090   31.2730  273.1840 H       1  UNL1        0.0231
     84 H          36.7150   32.1390  275.7050 H       1  UNL1        0.0238
     85 H          37.7450   30.7100  275.4650 H       1  UNL1        0.0238
     86 H          38.4100   32.3170  275.2330 H       1  UNL1        0.0238
     87 H          32.7920   29.3560  270.4890 H       1  UNL1        0.0258
     88 H          33.0190   29.9950  268.8880 H       1  UNL1        0.0258
     89 H          31.7210   30.6510  269.9130 H       1  UNL1        0.0258
     90 H          32.7050   33.9340  266.6160 H       1  UNL1        0.0233
     91 H          32.9920   34.8500  268.1080 H       1  UNL1        0.0233
     92 H          31.6500   33.6940  268.0110 H       1  UNL1        0.0233
     93 H          36.5260   30.0130  267.2390 H       1  UNL1        0.0391
     94 H          36.0130   31.1460  265.9690 H       1  UNL1        0.0391
     95 H          34.8380   30.4100  267.0620 H       1  UNL1        0.0391
     96 H          39.0720   33.1460  266.8570 H       1  UNL1        0.0246
     97 H          38.3400   31.6580  266.2560 H       1  UNL1        0.0246
     98 H          37.5220   33.2160  266.0300 H       1  UNL1        0.0246
     99 H          40.3050   34.1820  270.3700 H       1  UNL1        0.0259
    100 H          39.3320   34.2980  268.9400 H       1  UNL1        0.0259
    101 H          38.5420   34.0500  270.5150 H       1  UNL1        0.0259
    102 H          35.3340   31.0910  269.3640 H       1  UNL1        0.2103
    103 H          39.4420   30.4790  268.1520 H       1  UNL1        0.2100
    104 H          41.3350   32.5400  268.9870 H       1  UNL1        0.2104
    105 H          32.0340   31.0250  274.0400 H       1  UNL1        0.0937
    106 H          29.9090   32.9260  272.9210 H       1  UNL1        0.0660
    107 H          29.8930   31.2250  275.4580 H       1  UNL1        0.0490
    108 H          28.2050   30.8420  272.9410 H       1  UNL1        0.0306
    109 H          28.0860   29.8630  274.4130 H       1  UNL1        0.0306
    110 H          30.4790   29.1670  274.1410 H       1  UNL1        0.0595
    111 H          28.7310   27.7920  273.0090 H       1  UNL1        0.0255
    112 H          28.8450   28.8320  271.5700 H       1  UNL1        0.0255
    113 H          30.2220   27.8540  272.0420 H       1  UNL1        0.0255
    114 H          30.2140   33.7950  275.0930 H       1  UNL1        0.2101
    115 H          36.7080   28.9690  274.3670 H       1  UNL1        0.0911
    116 H          35.8840   29.3780  276.6920 H       1  UNL1        0.0343
    117 H          36.0360   27.6880  276.2070 H       1  UNL1        0.0343
    118 H          33.7020   25.9100  272.9880 H       1  UNL1        0.0255
    119 H          32.0780   26.6300  273.0400 H       1  UNL1        0.0255
    120 H          33.3060   27.2400  271.9110 H       1  UNL1        0.0255
    121 H          34.3980   26.7110  277.8550 H       1  UNL1        0.0258
    122 H          34.4360   28.3250  278.5680 H       1  UNL1        0.0258
    123 H          32.8870   27.5950  278.1670 H       1  UNL1        0.0258
    124 H          31.6960   28.0490  275.9000 H       1  UNL1        0.2100
@<TRIPOS>BOND
     1    94    44    1
     2    98    45    1
     3    97    45    1
     4    23    32    1
     5    90    43    1
     6    45    96    1
     7    45    34    1
     8    44    95    1
     9    44    93    1
    10    44    33    1
    11    32    33    1
    12    32    22    1
    13    32    31    1
    14    43    92    1
    15    43    91    1
    16    43    31    1
    17    76    31    1
    18    33    34    1
    19    34    77    1
    20    34    35    1
    21   103    49    1
    22    31    30    1
    23    49    35    1
    24    50   104    1
    25    50    36    1
    26    88    42    1
    27   100    46    1
    28    35    36    1
    29    35    11    1
    30   102    48    1
    31    36    46    1
    32    36    37    1
    33    30    21    1
    34    30    20    1
    35    30    29    1
    36    46    99    1
    37    46   101    1
    38    42    89    1
    39    42    29    1
    40    42    87    1
    41    48    29    1
    42    29    28    1
    43    80    38    1
    44    78    37    1
    45    37    38    1
    46    37    51    1
    47   112    57    1
    48    38    79    1
    49    38    39    1
    50   120    69    1
    51    51    24    1
    52    15    27    1
    53    28    60    1
    54    28    10    1
    55    28    27    1
    56   113    57    1
    57    60    52    1
    58    57   111    1
    59    57    56    1
    60    16    26    1
    61    63    52    1
    62    63    56    1
    63    82    39    1
    64    27    26    1
    65    27    41    1
    66    24    47    2
    67    24    25    1
    68    39    83    1
    69    39    81    1
    70   106    53    1
    71    69   118    1
    72    69   119    1
    73    69    68    1
    74   108    55    1
    75    52    53    1
    76    52   105    1
    77    26    25    1
    78    26    72    1
    79    14    25    1
    80    56    55    1
    81    56   110    1
    82     3    59    1
    83    18    41    1
    84    25    40    1
    85    75    68    1
    86    75    64    1
    87    53    61    1
    88    53    54    1
    89    55   109    1
    90    55    54    1
    91    12    68    1
    92     6    59    1
    93    41    19    1
    94    41    17    1
    95    68    67    1
    96    59     9    1
    97    59    62    1
    98   115    64    1
    99    72    64    1
   100    64    65    1
   101    61   114    1
   102    54    62    1
   103    54   107    1
   104    40    86    1
   105    40    85    1
   106    40    84    1
   107    62    58    1
   108    67    13    1
   109    67    74    1
   110    67    66    1
   111    74   124    1
   112    65   117    1
   113    65    66    1
   114    65   116    1
   115     8    58    1
   116    58     5    1
   117    58     2    1
   118    73    66    1
   119    73    71    1
   120    66    70    1
   121     7    71    1
   122     1    71    1
   123    71     4    1
   124    70   121    1
   125    70   123    1
   126    70   122    1
