@<TRIPOS>MOLECULE
236.43776
 124 126 0 0 0
SMALL
GASTEIGER

@<TRIPOS>ATOM
      1 H          36.0830   30.8230  267.6500 H       1  UNL1        0.0524
      2 H          34.8900   38.4650  267.9890 H       1  UNL1        0.0391
      3 H          37.4360   39.2730  271.2540 H       1  UNL1        0.0391
      4 H          36.4120   29.2910  266.8370 H       1  UNL1        0.0524
      5 H          34.8750   40.0320  268.7770 H       1  UNL1        0.0391
      6 H          37.7530   40.0830  269.7040 H       1  UNL1        0.0391
      7 H          36.5560   29.4260  268.6190 H       1  UNL1        0.0524
      8 H          36.2480   39.5860  267.7460 H       1  UNL1        0.0391
      9 H          36.3180   40.4780  270.6600 H       1  UNL1        0.0391
     10 H          39.1130   33.0840  270.2870 H       1  UNL1        0.0629
     11 H          40.5830   30.8490  275.2430 H       1  UNL1        0.0639
     12 H          40.0020   31.8310  268.5950 H       1  UNL1        0.0621
     13 H          41.2310   29.3570  267.2420 H       1  UNL1        0.0648
     14 H          36.7170   30.4580  273.1300 H       1  UNL1        0.0436
     15 H          37.8910   32.5530  273.0390 H       1  UNL1        0.0349
     16 H          39.4440   30.7330  272.2940 H       1  UNL1        0.0608
     17 H          36.6440   32.3800  270.2480 H       1  UNL1        0.0234
     18 H          36.1950   33.4870  271.5620 H       1  UNL1        0.0234
     19 H          35.8690   31.7810  271.7130 H       1  UNL1        0.0234
     20 H          39.8480   33.2130  274.0820 H       1  UNL1        0.0297
     21 H          39.8240   34.8700  273.4910 H       1  UNL1        0.0297
     22 H          43.5220   33.0150  274.2810 H       1  UNL1        0.0429
     23 H          42.1110   32.0170  274.1260 H       1  UNL1        0.0429
     24 C          38.2780   29.2060  273.7480 C.2     1  UNL1        0.3128
     25 C          37.5010   29.8750  272.6300 C.3     1  UNL1        0.0801
     26 C          38.4540   30.8240  271.8470 C.3     1  UNL1        0.0793
     27 C          38.0000   32.3120  271.9730 C.3     1  UNL1        0.0124
     28 C          38.9990   33.3470  271.3460 C.3     1  UNL1        0.0950
     29 C          40.4440   33.4230  271.9910 C.3     1  UNL1        0.0900
     30 C          40.3970   33.9350  273.4680 C.3     1  UNL1       -0.0181
     31 C          41.7740   34.1950  274.1410 C.3     1  UNL1       -0.0284
     32 C          42.4860   32.9070  274.6370 C.3     1  UNL1        0.0016
     33 N          42.5500   32.6660  276.0920 N.3     1  UNL1       -0.2999
     34 C          41.2530   32.2930  276.7240 C.3     1  UNL1        0.0361
     35 C          40.6300   30.9050  276.3360 C.3     1  UNL1        0.1022
     36 C          39.1990   30.6010  276.9100 C.3     1  UNL1        0.1270
     37 C          38.6030   29.3640  276.1410 C.3     1  UNL1        0.1335
     38 C          37.5010   28.6300  276.9340 C.3     1  UNL1       -0.0157
     39 C          36.9370   27.4210  276.1980 C.3     1  UNL1       -0.0618
     40 C          36.7800   28.8060  271.8150 C.3     1  UNL1       -0.0499
     41 C          36.6020   32.4970  271.3360 C.3     1  UNL1       -0.0576
     42 C          41.3280   34.3450  271.1290 C.3     1  UNL1       -0.0336
     43 C          41.6740   35.3060  275.1950 C.3     1  UNL1       -0.0612
     44 C          43.6330   31.7110  276.3650 C.3     1  UNL1       -0.0124
     45 C          41.3990   32.4950  278.2450 C.3     1  UNL1       -0.0470
     46 C          38.2540   31.8130  276.8200 C.3     1  UNL1       -0.0301
     47 O          39.0010   28.2320  273.6160 O.2     1  UNL1       -0.2504
     48 O          41.0880   32.1500  271.9900 O.3     1  UNL1       -0.3863
     49 O          41.4830   29.8310  276.7810 O.3     1  UNL1       -0.3873
     50 O          39.3790   30.2630  278.3040 O.3     1  UNL1       -0.3826
     51 O          38.0190   29.8570  274.9130 O.3     1  UNL1       -0.4581
     52 C          38.0150   35.2680  270.2320 C.3     1  UNL1        0.1871
     53 C          37.2330   36.5550  270.5830 C.3     1  UNL1        0.1214
     54 C          36.9540   37.3970  269.3140 C.3     1  UNL1        0.0429
     55 C          38.2470   37.5960  268.5150 C.3     1  UNL1       -0.0085
     56 C          38.8780   36.2330  268.2290 C.3     1  UNL1        0.0605
     57 C          40.1870   36.3860  267.4670 C.3     1  UNL1       -0.0385
     58 C          35.5310   39.2050  268.4810 C.3     1  UNL1       -0.0127
     59 C          36.9710   39.6570  270.3420 C.3     1  UNL1       -0.0127
     60 O          38.4140   34.6600  271.4690 O.3     1  UNL1       -0.3423
     61 O          35.9710   36.2550  271.2070 O.3     1  UNL1       -0.3852
     62 N          36.1850   38.6270  269.6580 N.3     1  UNL1       -0.3027
     63 O          39.1730   35.5710  269.4560 O.3     1  UNL1       -0.3457
     64 C          39.5890   29.6110  270.1100 C.3     1  UNL1        0.1627
     65 C          39.1750   28.6630  268.9800 C.3     1  UNL1        0.0298
     66 C          39.0870   29.3410  267.6050 C.3     1  UNL1        0.0991
     67 C          40.4190   30.0860  267.3580 C.3     1  UNL1        0.1098
     68 C          40.7400   31.0230  268.5360 C.3     1  UNL1        0.0874
     69 C          42.1120   31.6680  268.3370 C.3     1  UNL1       -0.0361
     70 C          38.8770   28.2890  266.5020 C.3     1  UNL1       -0.0331
     71 C          36.7170   29.9330  267.6670 C.3     1  UNL1        0.0373
     72 O          38.5190   30.4920  270.4490 O.3     1  UNL1       -0.3468
     73 O          38.0640   30.3570  267.5150 O.3     1  UNL1       -0.3740
     74 O          40.3290   30.8400  266.1420 O.3     1  UNL1       -0.3864
     75 O          40.7800   30.3320  269.7900 O.3     1  UNL1       -0.3456
     76 H          42.4410   34.6260  273.3870 H       1  UNL1        0.0311
     77 H          40.5330   33.0500  276.4040 H       1  UNL1        0.0486
     78 H          39.4020   28.6410  275.9380 H       1  UNL1        0.0764
     79 H          36.6690   29.3100  277.1470 H       1  UNL1        0.0299
     80 H          37.9000   28.2830  277.8940 H       1  UNL1        0.0299
     81 H          36.4050   27.7170  275.2890 H       1  UNL1        0.0231
     82 H          37.7330   26.7210  275.9240 H       1  UNL1        0.0231
     83 H          36.2260   26.8900  276.8390 H       1  UNL1        0.0231
     84 H          36.2010   29.2530  271.0020 H       1  UNL1        0.0238
     85 H          37.4730   28.0710  271.3980 H       1  UNL1        0.0238
     86 H          36.0820   28.2510  272.4520 H       1  UNL1        0.0238
     87 H          41.2110   34.1100  270.0660 H       1  UNL1        0.0258
     88 H          42.3930   34.1950  271.3320 H       1  UNL1        0.0258
     89 H          41.0850   35.4020  271.2780 H       1  UNL1        0.0258
     90 H          42.6380   35.4680  275.6890 H       1  UNL1        0.0233
     91 H          40.9200   35.0970  275.9570 H       1  UNL1        0.0233
     92 H          41.3920   36.2520  274.7180 H       1  UNL1        0.0233
     93 H          43.5250   30.7780  275.8020 H       1  UNL1        0.0391
     94 H          43.7240   31.4750  277.4290 H       1  UNL1        0.0391
     95 H          44.5960   32.1540  276.0810 H       1  UNL1        0.0391
     96 H          40.4240   32.5550  278.7370 H       1  UNL1        0.0246
     97 H          41.9620   31.6900  278.7250 H       1  UNL1        0.0246
     98 H          41.9080   33.4410  278.4660 H       1  UNL1        0.0246
     99 H          37.2350   31.5400  277.1140 H       1  UNL1        0.0259
    100 H          38.5460   32.6110  277.5090 H       1  UNL1        0.0259
    101 H          38.2170   32.2280  275.8080 H       1  UNL1        0.0259
    102 H          41.0960   31.7940  271.0790 H       1  UNL1        0.2103
    103 H          41.2560   29.7080  277.7260 H       1  UNL1        0.2100
    104 H          38.5140   30.3310  278.7460 H       1  UNL1        0.2104
    105 H          37.3690   34.5740  269.6800 H       1  UNL1        0.0937
    106 H          37.8220   37.1260  271.3100 H       1  UNL1        0.0660
    107 H          36.2750   36.7840  268.7020 H       1  UNL1        0.0490
    108 H          38.9520   38.2040  269.0960 H       1  UNL1        0.0306
    109 H          38.0480   38.1190  267.5730 H       1  UNL1        0.0306
    110 H          38.1990   35.6070  267.6370 H       1  UNL1        0.0595
    111 H          40.0330   36.8850  266.5060 H       1  UNL1        0.0255
    112 H          40.9160   36.9610  268.0490 H       1  UNL1        0.0255
    113 H          40.6380   35.4050  267.2840 H       1  UNL1        0.0255
    114 H          35.4790   37.1010  271.1710 H       1  UNL1        0.2101
    115 H          39.8280   28.9820  270.9760 H       1  UNL1        0.0911
    116 H          38.2240   28.1830  269.2300 H       1  UNL1        0.0343
    117 H          39.9310   27.8680  268.9200 H       1  UNL1        0.0343
    118 H          42.8910   30.9030  268.2430 H       1  UNL1        0.0255
    119 H          42.1350   32.3010  267.4450 H       1  UNL1        0.0255
    120 H          42.3870   32.2780  269.2020 H       1  UNL1        0.0255
    121 H          39.7420   27.6230  266.4140 H       1  UNL1        0.0258
    122 H          38.0030   27.6620  266.7130 H       1  UNL1        0.0258
    123 H          38.7000   28.7620  265.5300 H       1  UNL1        0.0258
    124 H          39.4330   31.2360  266.1600 H       1  UNL1        0.2100
@<TRIPOS>BOND
     1   123    70    1
     2    74   124    1
     3    74    67    1
     4   121    70    1
     5    70   122    1
     6    70    66    1
     7   111    57    1
     8     4    71    1
     9    13    67    1
    10   113    57    1
    11    67    66    1
    12    67    68    1
    13   119    69    1
    14    57   112    1
    15    57    56    1
    16    73    66    1
    17    73    71    1
    18   109    55    1
    19    66    65    1
    20   110    56    1
    21     1    71    1
    22    71     7    1
    23     8    58    1
    24     2    58    1
    25    56    55    1
    26    56    63    1
    27   118    69    1
    28    69    68    1
    29    69   120    1
    30    58     5    1
    31    58    62    1
    32    55   108    1
    33    55    54    1
    34    68    12    1
    35    68    75    1
    36   107    54    1
    37   117    65    1
    38    65   116    1
    39    65    64    1
    40    54    62    1
    41    54    53    1
    42    63    52    1
    43    62    59    1
    44   105    52    1
    45     6    59    1
    46    75    64    1
    47    87    42    1
    48    64    72    1
    49    64   115    1
    50    52    53    1
    51    52    60    1
    52    17    41    1
    53    10    28    1
    54    59     9    1
    55    59     3    1
    56    72    26    1
    57    53    61    1
    58    53   106    1
    59    84    40    1
    60   102    48    1
    61    42    89    1
    62    42    88    1
    63    42    29    1
    64   114    61    1
    65    41    18    1
    66    41    19    1
    67    41    27    1
    68    28    60    1
    69    28    27    1
    70    28    29    1
    71    85    40    1
    72    40    86    1
    73    40    25    1
    74    26    27    1
    75    26    16    1
    76    26    25    1
    77    27    15    1
    78    48    29    1
    79    29    30    1
    80    25    14    1
    81    25    24    1
    82    76    31    1
    83    30    21    1
    84    30    20    1
    85    30    31    1
    86    47    24    2
    87    24    51    1
    88    23    32    1
    89    31    32    1
    90    31    43    1
    91    22    32    1
    92    32    33    1
    93    92    43    1
    94    51    37    1
    95    43    90    1
    96    43    91    1
    97    11    35    1
    98    81    39    1
    99    93    44    1
   100   101    46    1
   101    82    39    1
   102    78    37    1
   103    95    44    1
   104    33    44    1
   105    33    34    1
   106    37    36    1
   107    37    38    1
   108    39    83    1
   109    39    38    1
   110    35    34    1
   111    35    49    1
   112    35    36    1
   113    44    94    1
   114    77    34    1
   115    34    45    1
   116    49   103    1
   117    46    36    1
   118    46    99    1
   119    46   100    1
   120    36    50    1
   121    38    79    1
   122    38    80    1
   123    45    98    1
   124    45    97    1
   125    45    96    1
   126    50   104    1
