@<TRIPOS>MOLECULE
251.44469
 124 126 0 0 0
SMALL
GASTEIGER

@<TRIPOS>ATOM
      1 H          32.4580   33.3370  269.3360 H       1  UNL1        0.0524
      2 H          31.7980   35.5830  265.6010 H       1  UNL1        0.0391
      3 H          35.6470   37.3020  265.4550 H       1  UNL1        0.0391
      4 H          31.1890   32.1690  269.7190 H       1  UNL1        0.0524
      5 H          32.0430   37.1820  264.9220 H       1  UNL1        0.0391
      6 H          34.8670   36.8240  263.9310 H       1  UNL1        0.0391
      7 H          32.7570   32.1310  270.5900 H       1  UNL1        0.0524
      8 H          32.5880   35.7570  264.0170 H       1  UNL1        0.0391
      9 H          34.2460   38.1790  264.8840 H       1  UNL1        0.0391
     10 H          36.9450   31.6940  268.5080 H       1  UNL1        0.0629
     11 H          42.1870   30.4170  273.4770 H       1  UNL1        0.0639
     12 H          35.1690   30.6660  267.7060 H       1  UNL1        0.0621
     13 H          33.1860   28.3290  267.5390 H       1  UNL1        0.0648
     14 H          37.1180   31.8110  272.9130 H       1  UNL1        0.0436
     15 H          37.8400   32.8460  271.0900 H       1  UNL1        0.0349
     16 H          37.1870   30.3870  270.5300 H       1  UNL1        0.0608
     17 H          34.9960   33.4800  270.2490 H       1  UNL1        0.0234
     18 H          36.3110   34.6360  270.5250 H       1  UNL1        0.0234
     19 H          35.7000   33.6870  271.8600 H       1  UNL1        0.0234
     20 H          39.5800   33.8550  270.2440 H       1  UNL1        0.0297
     21 H          39.4430   34.4230  268.5990 H       1  UNL1        0.0297
     22 H          41.6690   34.3210  271.0120 H       1  UNL1        0.0429
     23 H          43.1510   33.7620  270.2760 H       1  UNL1        0.0429
     24 C          37.1030   29.6830  272.9810 C.2     1  UNL1        0.3128
     25 C          36.5040   31.0070  272.5230 C.3     1  UNL1        0.0801
     26 C          36.5010   31.1290  270.9570 C.3     1  UNL1        0.0793
     27 C          36.9750   32.5590  270.4940 C.3     1  UNL1        0.0124
     28 C          37.4400   32.5390  268.9970 C.3     1  UNL1        0.0950
     29 C          38.9980   32.3160  268.8220 C.3     1  UNL1        0.0900
     30 C          39.8110   33.5860  269.2070 C.3     1  UNL1       -0.0181
     31 C          41.3590   33.4980  269.0550 C.3     1  UNL1       -0.0284
     32 C          42.0940   33.5000  270.4190 C.3     1  UNL1        0.0016
     33 N          41.9860   32.2180  271.1580 N.3     1  UNL1       -0.2999
     34 C          42.1000   32.4430  272.6320 C.3     1  UNL1        0.0361
     35 C          41.5160   31.2820  273.5350 C.3     1  UNL1        0.1022
     36 C          40.0550   30.8070  273.1600 C.3     1  UNL1        0.1270
     37 C          39.1030   30.5110  274.3720 C.3     1  UNL1        0.1335
     38 C          38.5890   31.7120  275.1960 C.3     1  UNL1       -0.0157
     39 C          37.7370   31.2750  276.3840 C.3     1  UNL1       -0.0618
     40 C          35.1230   31.1290  273.1730 C.3     1  UNL1       -0.0499
     41 C          35.9300   33.6450  270.7920 C.3     1  UNL1       -0.0576
     42 C          39.2760   31.9230  267.3590 C.3     1  UNL1       -0.0336
     43 C          41.8520   34.7020  268.2350 C.3     1  UNL1       -0.0612
     44 C          42.9950   31.2700  270.6590 C.3     1  UNL1       -0.0124
     45 C          43.5240   32.8150  273.0980 C.3     1  UNL1       -0.0470
     46 C          40.1850   29.5450  272.2760 C.3     1  UNL1       -0.0301
     47 O          36.6970   28.6090  272.5350 O.2     1  UNL1       -0.2504
     48 O          39.4240   31.2290  269.6510 O.3     1  UNL1       -0.3863
     49 O          41.5980   31.6920  274.9100 O.3     1  UNL1       -0.3873
     50 O          39.4210   31.8310  272.3960 O.3     1  UNL1       -0.3826
     51 O          37.9680   29.6430  274.0190 O.3     1  UNL1       -0.4581
     52 C          35.9820   33.6240  267.4330 C.3     1  UNL1        0.1871
     53 C          35.4370   35.0330  267.1060 C.3     1  UNL1        0.1214
     54 C          34.3670   34.9450  265.9900 C.3     1  UNL1        0.0429
     55 C          34.9220   34.1690  264.7900 C.3     1  UNL1       -0.0085
     56 C          35.4400   32.8070  265.2560 C.3     1  UNL1        0.0605
     57 C          36.0600   32.0410  264.0950 C.3     1  UNL1       -0.0385
     58 C          32.5000   36.1910  265.0190 C.3     1  UNL1       -0.0127
     59 C          34.6840   37.1770  264.9520 C.3     1  UNL1       -0.0127
     60 O          37.0900   33.7640  268.3310 O.3     1  UNL1       -0.3423
     61 O          34.8330   35.6570  268.2530 O.3     1  UNL1       -0.3852
     62 N          33.7930   36.2900  265.7030 N.3     1  UNL1       -0.3027
     63 O          36.4510   32.9780  266.2460 O.3     1  UNL1       -0.3457
     64 C          34.8070   29.5950  270.1390 C.3     1  UNL1        0.1627
     65 C          33.2810   29.4840  270.0900 C.3     1  UNL1        0.0298
     66 C          32.6620   30.0340  268.7950 C.3     1  UNL1        0.0991
     67 C          33.4090   29.4020  267.5920 C.3     1  UNL1        0.1098
     68 C          34.9260   29.6010  267.7470 C.3     1  UNL1        0.0874
     69 C          35.6910   28.9170  266.6170 C.3     1  UNL1       -0.0361
     70 C          31.1700   29.6660  268.7210 C.3     1  UNL1       -0.0331
     71 C          32.2700   32.2990  269.6270 C.3     1  UNL1        0.0373
     72 O          35.1890   30.9440  270.3830 O.3     1  UNL1       -0.3468
     73 O          32.8070   31.4620  268.6120 O.3     1  UNL1       -0.3740
     74 O          32.9500   30.0130  266.3760 O.3     1  UNL1       -0.3864
     75 O          35.4090   29.0490  268.9710 O.3     1  UNL1       -0.3456
     76 H          41.6510   32.6070  268.4940 H       1  UNL1        0.0311
     77 H          41.4780   33.3170  272.8760 H       1  UNL1        0.0486
     78 H          39.6810   29.8780  275.0580 H       1  UNL1        0.0764
     79 H          37.9960   32.3980  274.5890 H       1  UNL1        0.0299
     80 H          39.4150   32.3050  275.5890 H       1  UNL1        0.0299
     81 H          36.8320   30.7530  276.0630 H       1  UNL1        0.0231
     82 H          38.3020   30.6120  277.0460 H       1  UNL1        0.0231
     83 H          37.4280   32.1500  276.9650 H       1  UNL1        0.0231
     84 H          34.5930   32.0260  272.8450 H       1  UNL1        0.0238
     85 H          34.4900   30.2620  272.9570 H       1  UNL1        0.0238
     86 H          35.2190   31.1820  274.2630 H       1  UNL1        0.0238
     87 H          38.6300   31.0910  267.0530 H       1  UNL1        0.0258
     88 H          40.2980   31.5610  267.2160 H       1  UNL1        0.0258
     89 H          39.1080   32.7610  266.6750 H       1  UNL1        0.0258
     90 H          42.9350   34.6520  268.0830 H       1  UNL1        0.0233
     91 H          41.6230   35.6470  268.7390 H       1  UNL1        0.0233
     92 H          41.3800   34.7170  267.2470 H       1  UNL1        0.0233
     93 H          43.0120   30.3490  271.2500 H       1  UNL1        0.0391
     94 H          44.0090   31.6860  270.6660 H       1  UNL1        0.0391
     95 H          42.7640   30.9720  269.6320 H       1  UNL1        0.0391
     96 H          43.5160   33.1680  274.1350 H       1  UNL1        0.0246
     97 H          44.2030   31.9580  273.0470 H       1  UNL1        0.0246
     98 H          43.9460   33.6270  272.4970 H       1  UNL1        0.0246
     99 H          39.2570   29.2990  271.7570 H       1  UNL1        0.0259
    100 H          40.9130   29.6820  271.4750 H       1  UNL1        0.0259
    101 H          40.5010   28.6800  272.8680 H       1  UNL1        0.0259
    102 H          40.3700   31.0780  269.4740 H       1  UNL1        0.2103
    103 H          41.3150   32.6230  274.9550 H       1  UNL1        0.2100
    104 H          39.8400   31.8240  271.5060 H       1  UNL1        0.2104
    105 H          35.1970   33.0260  267.9110 H       1  UNL1        0.0937
    106 H          36.2760   35.6680  266.7980 H       1  UNL1        0.0660
    107 H          33.5450   34.3530  266.4200 H       1  UNL1        0.0490
    108 H          35.7500   34.7290  264.3380 H       1  UNL1        0.0306
    109 H          34.1530   34.0300  264.0230 H       1  UNL1        0.0306
    110 H          34.6240   32.2090  265.6790 H       1  UNL1        0.0595
    111 H          35.3230   31.8390  263.3130 H       1  UNL1        0.0255
    112 H          36.8940   32.6010  263.6560 H       1  UNL1        0.0255
    113 H          36.4760   31.0890  264.4410 H       1  UNL1        0.0255
    114 H          34.3030   36.3880  267.8760 H       1  UNL1        0.2101
    115 H          35.1230   28.9720  270.9720 H       1  UNL1        0.0911
    116 H          32.8500   29.9780  270.9680 H       1  UNL1        0.0343
    117 H          33.0240   28.4180  270.1610 H       1  UNL1        0.0343
    118 H          35.5370   27.8330  266.6430 H       1  UNL1        0.0255
    119 H          35.3840   29.2890  265.6360 H       1  UNL1        0.0255
    120 H          36.7670   29.0850  266.7320 H       1  UNL1        0.0255
    121 H          31.0280   28.5830  268.6370 H       1  UNL1        0.0258
    122 H          30.6340   29.9960  269.6180 H       1  UNL1        0.0258
    123 H          30.6830   30.1490  267.8670 H       1  UNL1        0.0258
    124 H          32.7980   30.9480  266.6200 H       1  UNL1        0.2100
@<TRIPOS>BOND
     1   111    57    1
     2   112    57    1
     3     6    59    1
     4     8    58    1
     5   109    55    1
     6    57   113    1
     7    57    56    1
     8   108    55    1
     9    55    56    1
    10    55    54    1
    11     9    59    1
    12     5    58    1
    13    59     3    1
    14    59    62    1
    15    58     2    1
    16    58    62    1
    17    56   110    1
    18    56    63    1
    19   119    69    1
    20    62    54    1
    21    54   107    1
    22    54    53    1
    23    63    52    1
    24    74   124    1
    25    74    67    1
    26    69   118    1
    27    69   120    1
    28    69    68    1
    29    89    42    1
    30   106    53    1
    31    87    42    1
    32    53    52    1
    33    53    61    1
    34    88    42    1
    35    92    43    1
    36    42    29    1
    37    52   105    1
    38    52    60    1
    39    13    67    1
    40    67    68    1
    41    67    66    1
    42    12    68    1
    43    68    75    1
    44   123    70    1
    45   114    61    1
    46    90    43    1
    47    43    91    1
    48    43    31    1
    49    60    28    1
    50    76    31    1
    51    10    28    1
    52    21    30    1
    53    73    66    1
    54    73    71    1
    55   121    70    1
    56    70    66    1
    57    70   122    1
    58    66    65    1
    59    29    28    1
    60    29    30    1
    61    29    48    1
    62    75    64    1
    63    28    27    1
    64    31    30    1
    65    31    32    1
    66    30    20    1
    67     1    71    1
    68   102    48    1
    69    71     4    1
    70    71     7    1
    71    95    44    1
    72    65    64    1
    73    65   117    1
    74    65   116    1
    75    64    72    1
    76    64   115    1
    77    17    41    1
    78    23    32    1
    79    72    26    1
    80    32    22    1
    81    32    33    1
    82    27    41    1
    83    27    26    1
    84    27    15    1
    85    18    41    1
    86    16    26    1
    87    44    94    1
    88    44    33    1
    89    44    93    1
    90    41    19    1
    91    26    25    1
    92    33    34    1
    93   100    46    1
    94   104    50    1
    95    99    46    1
    96    46   101    1
    97    46    36    1
    98    50    36    1
    99    98    45    1
   100    25    14    1
   101    25    24    1
   102    25    40    1
   103    47    24    2
   104    34    77    1
   105    34    45    1
   106    34    35    1
   107    84    40    1
   108    85    40    1
   109    24    51    1
   110    97    45    1
   111    45    96    1
   112    36    35    1
   113    36    37    1
   114    40    86    1
   115    11    35    1
   116    35    49    1
   117    51    37    1
   118    37    78    1
   119    37    38    1
   120    79    38    1
   121    49   103    1
   122    38    80    1
   123    38    39    1
   124    81    39    1
   125    39    83    1
   126    39    82    1
