@<TRIPOS>MOLECULE
248.51711
 124 126 0 0 0
SMALL
GASTEIGER

@<TRIPOS>ATOM
      1 H          44.6310   30.2850  268.4610 H       1  UNL1        0.0524
      2 H          41.3280   39.4200  270.2300 H       1  UNL1        0.0391
      3 H          40.6840   36.3020  267.4620 H       1  UNL1        0.0391
      4 H          44.8160   28.6210  267.8990 H       1  UNL1        0.0524
      5 H          40.8390   39.7700  268.5810 H       1  UNL1        0.0391
      6 H          39.2830   37.2260  268.0490 H       1  UNL1        0.0391
      7 H          43.3380   29.1280  268.7800 H       1  UNL1        0.0524
      8 H          39.6630   39.0760  269.7120 H       1  UNL1        0.0391
      9 H          40.4900   37.9770  266.9950 H       1  UNL1        0.0391
     10 H          43.4670   31.5380  271.0580 H       1  UNL1        0.0629
     11 H          40.5760   30.1310  275.9440 H       1  UNL1        0.0639
     12 H          44.8340   29.5340  272.4660 H       1  UNL1        0.0621
     13 H          45.7410   26.6110  272.2180 H       1  UNL1        0.0648
     14 H          39.3090   30.2440  272.2570 H       1  UNL1        0.0436
     15 H          40.7460   32.0280  272.2710 H       1  UNL1        0.0349
     16 H          41.8640   30.0010  273.1840 H       1  UNL1        0.0608
     17 H          41.3800   30.8220  269.5150 H       1  UNL1        0.0234
     18 H          40.7880   32.4630  269.7310 H       1  UNL1        0.0234
     19 H          39.7720   31.1410  270.2010 H       1  UNL1        0.0234
     20 H          41.8120   33.6600  273.6310 H       1  UNL1        0.0297
     21 H          43.3060   34.5700  273.6530 H       1  UNL1        0.0297
     22 H          41.9010   31.4890  275.2420 H       1  UNL1        0.0429
     23 H          40.9050   32.8880  275.5620 H       1  UNL1        0.0429
     24 C          39.7610   28.6450  273.5370 C.2     1  UNL1        0.3128
     25 C          40.0090   29.3970  272.2340 C.3     1  UNL1        0.0801
     26 C          41.4620   29.9820  272.1690 C.3     1  UNL1        0.0793
     27 C          41.4240   31.4700  271.6160 C.3     1  UNL1        0.0124
     28 C          42.8030   32.2400  271.5830 C.3     1  UNL1        0.0950
     29 C          43.5470   32.5290  272.9530 C.3     1  UNL1        0.0900
     30 C          42.8750   33.5870  273.8750 C.3     1  UNL1       -0.0181
     31 C          42.9820   33.3590  275.4060 C.3     1  UNL1       -0.0284
     32 C          41.8500   32.4010  275.8400 C.3     1  UNL1        0.0016
     33 N          41.7990   32.0660  277.2780 N.3     1  UNL1       -0.2999
     34 C          40.4510   31.5070  277.6230 C.3     1  UNL1        0.0361
     35 C          40.0970   30.1490  276.9230 C.3     1  UNL1        0.1022
     36 C          38.5760   29.8400  276.6940 C.3     1  UNL1        0.1270
     37 C          38.4790   28.7320  275.5810 C.3     1  UNL1        0.1335
     38 C          37.0630   28.1420  275.4190 C.3     1  UNL1       -0.0157
     39 C          37.0130   26.9800  274.4350 C.3     1  UNL1       -0.0618
     40 C          39.5740   28.5000  271.0700 C.3     1  UNL1       -0.0499
     41 C          40.8130   31.4720  270.1900 C.3     1  UNL1       -0.0576
     42 C          44.9840   32.9980  272.6370 C.3     1  UNL1       -0.0336
     43 C          42.8630   34.6990  276.1420 C.3     1  UNL1       -0.0612
     44 C          42.9000   31.1650  277.6360 C.3     1  UNL1       -0.0124
     45 C          40.2530   31.4730  279.1450 C.3     1  UNL1       -0.0470
     46 C          37.7670   31.0870  276.3040 C.3     1  UNL1       -0.0301
     47 O          40.2260   27.5500  273.8140 O.2     1  UNL1       -0.2504
     48 O          43.6620   31.3060  273.6750 O.3     1  UNL1       -0.3863
     49 O          40.6670   29.0490  277.6600 O.3     1  UNL1       -0.3873
     50 O          38.0600   29.3380  277.9450 O.3     1  UNL1       -0.3826
     51 O          38.8740   29.3310  274.3160 O.3     1  UNL1       -0.4581
     52 C          42.0600   34.5650  271.0350 C.3     1  UNL1        0.1871
     53 C          42.0280   35.5150  269.8100 C.3     1  UNL1        0.1214
     54 C          41.1480   36.7570  270.1200 C.3     1  UNL1        0.0429
     55 C          39.7750   36.3200  270.6440 C.3     1  UNL1       -0.0085
     56 C          39.9680   35.3970  271.8440 C.3     1  UNL1        0.0605
     57 C          38.6310   34.8850  272.3640 C.3     1  UNL1       -0.0385
     58 C          40.7130   39.0530  269.4000 C.3     1  UNL1       -0.0127
     59 C          40.3550   37.2790  267.8290 C.3     1  UNL1       -0.0127
     60 O          42.7800   33.3770  270.6820 O.3     1  UNL1       -0.3423
     61 O          43.3450   35.9800  269.4690 O.3     1  UNL1       -0.3852
     62 N          41.1450   37.7160  268.9810 N.3     1  UNL1       -0.3027
     63 O          40.7330   34.2610  271.4580 O.3     1  UNL1       -0.3457
     64 C          42.7640   27.9590  271.8170 C.3     1  UNL1        0.1627
     65 C          43.4670   27.1720  270.7050 C.3     1  UNL1        0.0298
     66 C          44.9210   27.6100  270.4610 C.3     1  UNL1        0.0991
     67 C          45.6540   27.6330  271.8260 C.3     1  UNL1        0.1098
     68 C          44.8690   28.5000  272.8220 C.3     1  UNL1        0.0874
     69 C          45.5320   28.5000  274.1980 C.3     1  UNL1       -0.0361
     70 C          45.6260   26.6200  269.5190 C.3     1  UNL1       -0.0331
     71 C          44.4210   29.2400  268.7070 C.3     1  UNL1        0.0373
     72 O          42.3510   29.2320  271.3230 O.3     1  UNL1       -0.3468
     73 O          45.0620   28.9500  269.9400 O.3     1  UNL1       -0.3740
     74 O          46.9790   28.1540  271.6530 O.3     1  UNL1       -0.3864
     75 O          43.5420   28.0100  273.0040 O.3     1  UNL1       -0.3456
     76 H          43.9650   32.9410  275.6450 H       1  UNL1        0.0311
     77 H          39.7550   32.2740  277.2710 H       1  UNL1        0.0486
     78 H          39.1480   27.9080  275.8610 H       1  UNL1        0.0764
     79 H          36.3690   28.9070  275.0560 H       1  UNL1        0.0299
     80 H          36.6910   27.7840  276.3850 H       1  UNL1        0.0299
     81 H          37.2530   27.3050  273.4190 H       1  UNL1        0.0231
     82 H          37.7120   26.1890  274.7240 H       1  UNL1        0.0231
     83 H          36.0060   26.5500  274.4150 H       1  UNL1        0.0231
     84 H          39.8720   28.9010  270.0980 H       1  UNL1        0.0238
     85 H          39.9670   27.4830  271.1460 H       1  UNL1        0.0238
     86 H          38.4820   28.4040  271.0670 H       1  UNL1        0.0238
     87 H          45.5270   32.2310  272.0740 H       1  UNL1        0.0258
     88 H          45.5540   33.1640  273.5580 H       1  UNL1        0.0258
     89 H          44.9950   33.9260  272.0570 H       1  UNL1        0.0258
     90 H          42.9580   34.5680  277.2240 H       1  UNL1        0.0233
     91 H          41.9000   35.1810  275.9390 H       1  UNL1        0.0233
     92 H          43.6570   35.3850  275.8250 H       1  UNL1        0.0233
     93 H          42.9130   30.2500  277.0350 H       1  UNL1        0.0391
     94 H          42.8670   30.8880  278.6940 H       1  UNL1        0.0391
     95 H          43.8640   31.6670  277.4980 H       1  UNL1        0.0391
     96 H          39.2050   31.2740  279.3920 H       1  UNL1        0.0246
     97 H          40.8620   30.7100  279.6360 H       1  UNL1        0.0246
     98 H          40.5080   32.4430  279.5890 H       1  UNL1        0.0246
     99 H          36.7330   30.8320  276.0510 H       1  UNL1        0.0259
    100 H          37.6790   31.7830  277.1460 H       1  UNL1        0.0259
    101 H          38.2080   31.6120  275.4510 H       1  UNL1        0.0259
    102 H          44.4490   31.3420  274.2460 H       1  UNL1        0.2103
    103 H          39.9840   28.8070  278.3190 H       1  UNL1        0.2100
    104 H          37.0880   29.3370  277.8950 H       1  UNL1        0.2104
    105 H          42.6090   35.0780  271.8250 H       1  UNL1        0.0937
    106 H          41.6420   34.9620  268.9460 H       1  UNL1        0.0660
    107 H          41.6640   37.2770  270.9420 H       1  UNL1        0.0490
    108 H          39.2330   35.7800  269.8570 H       1  UNL1        0.0306
    109 H          39.1690   37.1840  270.9360 H       1  UNL1        0.0306
    110 H          40.4850   35.9190  272.6590 H       1  UNL1        0.0595
    111 H          37.9870   35.7070  272.6900 H       1  UNL1        0.0255
    112 H          38.1040   34.3080  271.5950 H       1  UNL1        0.0255
    113 H          38.7860   34.2060  273.2100 H       1  UNL1        0.0255
    114 H          43.1880   36.7460  268.8810 H       1  UNL1        0.2101
    115 H          41.8780   27.3790  272.0670 H       1  UNL1        0.0911
    116 H          42.8780   27.2360  269.7830 H       1  UNL1        0.0343
    117 H          43.4810   26.1160  271.0060 H       1  UNL1        0.0343
    118 H          45.6040   27.4820  274.5960 H       1  UNL1        0.0255
    119 H          46.5360   28.9340  274.1630 H       1  UNL1        0.0255
    120 H          44.9310   29.0700  274.9150 H       1  UNL1        0.0255
    121 H          45.7230   25.6300  269.9770 H       1  UNL1        0.0258
    122 H          45.0680   26.4930  268.5850 H       1  UNL1        0.0258
    123 H          46.6250   26.9750  269.2450 H       1  UNL1        0.0258
    124 H          46.8660   28.9140  271.0460 H       1  UNL1        0.2100
@<TRIPOS>BOND
     1     9    59    1
     2     3    59    1
     3    59     6    1
     4    59    62    1
     5     4    71    1
     6     1    71    1
     7     5    58    1
     8   122    70    1
     9    71     7    1
    10    71    73    1
    11   114    61    1
    12   106    53    1
    13    62    58    1
    14    62    54    1
    15   123    70    1
    16    58     8    1
    17    58     2    1
    18    61    53    1
    19    17    41    1
    20    70   121    1
    21    70    66    1
    22    18    41    1
    23   116    65    1
    24    53    54    1
    25    53    52    1
    26   108    55    1
    27    73    66    1
    28    84    40    1
    29    54    55    1
    30    54   107    1
    31    41    19    1
    32    41    27    1
    33    66    65    1
    34    66    67    1
    35    55   109    1
    36    55    56    1
    37    60    52    1
    38    60    28    1
    39    65   117    1
    40    65    64    1
    41    52    63    1
    42    52   105    1
    43   124    74    1
    44    10    28    1
    45    86    40    1
    46    40    85    1
    47    40    25    1
    48    72    64    1
    49    72    26    1
    50    63    56    1
    51    28    27    1
    52    28    29    1
    53   112    57    1
    54    27    26    1
    55    27    15    1
    56    74    67    1
    57    64   115    1
    58    64    75    1
    59    67    13    1
    60    67    68    1
    61    56    57    1
    62    56   110    1
    63    89    42    1
    64    87    42    1
    65    26    25    1
    66    26    16    1
    67    25    14    1
    68    25    24    1
    69    57   111    1
    70    57   113    1
    71    12    68    1
    72    42    29    1
    73    42    88    1
    74    68    75    1
    75    68    69    1
    76    29    48    1
    77    29    30    1
    78    81    39    1
    79    24    47    2
    80    24    51    1
    81    20    30    1
    82    21    30    1
    83    48   102    1
    84    30    31    1
    85   119    69    1
    86    69   118    1
    87    69   120    1
    88    51    37    1
    89    83    39    1
    90    39    82    1
    91    39    38    1
    92    79    38    1
    93    22    32    1
    94    31    76    1
    95    31    32    1
    96    31    43    1
    97    38    37    1
    98    38    80    1
    99   101    46    1
   100    23    32    1
   101    37    78    1
   102    37    36    1
   103    92    43    1
   104    32    33    1
   105    91    43    1
   106    11    35    1
   107    99    46    1
   108    43    90    1
   109    46    36    1
   110    46   100    1
   111    36    35    1
   112    36    50    1
   113    35    34    1
   114    35    49    1
   115    93    44    1
   116    77    34    1
   117    33    34    1
   118    33    44    1
   119    95    44    1
   120    34    45    1
   121    44    94    1
   122    49   103    1
   123   104    50    1
   124    45    96    1
   125    45    98    1
   126    45    97    1
