@<TRIPOS>MOLECULE
250.30573
 124 126 0 0 0
SMALL
GASTEIGER

@<TRIPOS>ATOM
      1 H          40.4420   31.9830  267.5450 H       1  UNL1        0.0524
      2 H          37.0420   40.0290  272.5430 H       1  UNL1        0.0391
      3 H          35.2200   37.3540  269.8400 H       1  UNL1        0.0391
      4 H          40.3820   30.5370  266.5340 H       1  UNL1        0.0524
      5 H          35.7240   40.5550  271.5120 H       1  UNL1        0.0391
      6 H          34.2940   37.8990  271.2560 H       1  UNL1        0.0391
      7 H          39.4200   30.6330  268.0460 H       1  UNL1        0.0524
      8 H          35.3860   39.4810  272.8820 H       1  UNL1        0.0391
      9 H          34.6990   39.0200  269.9480 H       1  UNL1        0.0391
     10 H          39.8440   32.6920  270.2550 H       1  UNL1        0.0629
     11 H          40.3890   30.1330  275.5240 H       1  UNL1        0.0639
     12 H          42.6980   30.4900  270.5410 H       1  UNL1        0.0621
     13 H          43.0100   27.6510  269.4420 H       1  UNL1        0.0648
     14 H          37.2050   30.3720  273.1000 H       1  UNL1        0.0436
     15 H          38.2360   32.4790  272.8100 H       1  UNL1        0.0349
     16 H          39.8710   30.6730  272.7730 H       1  UNL1        0.0608
     17 H          37.4830   31.6580  269.9500 H       1  UNL1        0.0234
     18 H          36.8810   33.1180  270.7280 H       1  UNL1        0.0234
     19 H          36.4450   31.5780  271.3920 H       1  UNL1        0.0234
     20 H          39.8230   34.0640  273.7040 H       1  UNL1        0.0297
     21 H          40.9740   35.2350  273.1060 H       1  UNL1        0.0297
     22 H          41.0760   31.7240  274.4620 H       1  UNL1        0.0429
     23 H          40.2530   32.8440  275.5230 H       1  UNL1        0.0429
     24 C          38.4460   28.7970  273.6940 C.2     1  UNL1        0.3128
     25 C          37.9350   29.7240  272.5930 C.3     1  UNL1        0.0801
     26 C          39.0740   30.6410  272.0260 C.3     1  UNL1        0.0793
     27 C          38.5370   32.1240  271.8190 C.3     1  UNL1        0.0124
     28 C          39.5540   33.1650  271.2040 C.3     1  UNL1        0.0950
     29 C          40.9260   33.4040  271.9470 C.3     1  UNL1        0.0900
     30 C          40.8350   34.1650  273.2970 C.3     1  UNL1       -0.0181
     31 C          41.8350   33.7470  274.4100 C.3     1  UNL1       -0.0284
     32 C          41.2480   32.5390  275.1690 C.3     1  UNL1        0.0016
     33 N          42.0240   32.0490  276.3270 N.3     1  UNL1       -0.2999
     34 C          41.1420   31.2480  277.2350 C.3     1  UNL1        0.0361
     35 C          40.5220   29.9580  276.5920 C.3     1  UNL1        0.1022
     36 C          39.1370   29.4820  277.1530 C.3     1  UNL1        0.1270
     37 C          38.5010   28.5100  276.0890 C.3     1  UNL1        0.1335
     38 C          37.2470   27.7720  276.6030 C.3     1  UNL1       -0.0157
     39 C          36.7290   26.7220  275.6280 C.3     1  UNL1       -0.0618
     40 C          37.1420   28.8960  271.5750 C.3     1  UNL1       -0.0499
     41 C          37.2710   32.1160  270.9220 C.3     1  UNL1       -0.0576
     42 C          41.8720   34.1850  271.0130 C.3     1  UNL1       -0.0336
     43 C          42.0640   34.9250  275.3650 C.3     1  UNL1       -0.0612
     44 C          43.2050   31.3090  275.8680 C.3     1  UNL1       -0.0124
     45 C          41.8360   30.9840  278.5780 C.3     1  UNL1       -0.0470
     46 C          38.1880   30.6490  277.4690 C.3     1  UNL1       -0.0301
     47 O          38.9980   27.7230  273.5030 O.2     1  UNL1       -0.2504
     48 O          41.5690   32.1530  272.1760 O.3     1  UNL1       -0.3863
     49 O          41.4460   28.8580  276.6970 O.3     1  UNL1       -0.3873
     50 O          39.4060   28.7710  278.3790 O.3     1  UNL1       -0.3826
     51 O          38.1310   29.2980  274.9240 O.3     1  UNL1       -0.4581
     52 C          38.4090   35.3290  271.6850 C.3     1  UNL1        0.1871
     53 C          37.6610   36.4450  270.9120 C.3     1  UNL1        0.1214
     54 C          37.0040   37.4340  271.9130 C.3     1  UNL1        0.0429
     55 C          36.1550   36.6680  272.9360 C.3     1  UNL1       -0.0085
     56 C          37.0190   35.6020  273.6080 C.3     1  UNL1        0.0605
     57 C          36.2020   34.7710  274.5880 C.3     1  UNL1       -0.0385
     58 C          36.1030   39.7000  272.0840 C.3     1  UNL1       -0.0127
     59 C          35.0760   38.1800  270.5420 C.3     1  UNL1       -0.0127
     60 O          38.9120   34.3750  270.7420 O.3     1  UNL1       -0.3423
     61 O          38.5540   37.1930  270.0690 O.3     1  UNL1       -0.3852
     62 N          36.3290   38.5530  271.1990 N.3     1  UNL1       -0.3027
     63 O          37.5350   34.7110  272.6250 O.3     1  UNL1       -0.3457
     64 C          40.3340   28.9660  270.7660 C.3     1  UNL1        0.1627
     65 C          40.3860   28.4130  269.3400 C.3     1  UNL1        0.0298
     66 C          41.5450   28.9680  268.5060 C.3     1  UNL1        0.0991
     67 C          42.8450   28.7280  269.3110 C.3     1  UNL1        0.1098
     68 C          42.7280   29.4080  270.6840 C.3     1  UNL1        0.0874
     69 C          43.9490   29.1150  271.5540 C.3     1  UNL1       -0.0361
     70 C          41.6330   28.2410  267.1530 C.3     1  UNL1       -0.0331
     71 C          40.3660   30.8920  267.5670 C.3     1  UNL1        0.0373
     72 O          39.6490   30.2220  270.7730 O.3     1  UNL1       -0.3468
     73 O          41.4800   30.3960  268.2950 O.3     1  UNL1       -0.3740
     74 O          43.9650   29.2600  268.5920 O.3     1  UNL1       -0.3864
     75 O          41.5880   28.9850  271.4290 O.3     1  UNL1       -0.3456
     76 H          42.8000   33.4920  273.9590 H       1  UNL1        0.0311
     77 H          40.3320   31.9430  277.4770 H       1  UNL1        0.0486
     78 H          39.2500   27.7500  275.8340 H       1  UNL1        0.0764
     79 H          36.4320   28.4820  276.7810 H       1  UNL1        0.0299
     80 H          37.4680   27.2710  277.5510 H       1  UNL1        0.0299
     81 H          36.3660   27.1800  274.7020 H       1  UNL1        0.0231
     82 H          37.5100   25.9970  275.3780 H       1  UNL1        0.0231
     83 H          35.8920   26.1770  276.0760 H       1  UNL1        0.0231
     84 H          36.9100   29.4560  270.6670 H       1  UNL1        0.0238
     85 H          37.6530   27.9770  271.2750 H       1  UNL1        0.0238
     86 H          36.1910   28.5800  272.0200 H       1  UNL1        0.0238
     87 H          42.0330   33.6390  270.0760 H       1  UNL1        0.0258
     88 H          42.8610   34.3030  271.4700 H       1  UNL1        0.0258
     89 H          41.4830   35.1780  270.7700 H       1  UNL1        0.0258
     90 H          42.7910   34.6700  276.1430 H       1  UNL1        0.0233
     91 H          41.1320   35.2290  275.8540 H       1  UNL1        0.0233
     92 H          42.4590   35.7910  274.8230 H       1  UNL1        0.0233
     93 H          42.9510   30.4560  275.2320 H       1  UNL1        0.0391
     94 H          43.8050   30.9500  276.7100 H       1  UNL1        0.0391
     95 H          43.8690   31.9660  275.2960 H       1  UNL1        0.0391
     96 H          41.1220   30.5950  279.3100 H       1  UNL1        0.0246
     97 H          42.6570   30.2650  278.4980 H       1  UNL1        0.0246
     98 H          42.2450   31.9140  278.9910 H       1  UNL1        0.0246
     99 H          37.1940   30.2910  277.7560 H       1  UNL1        0.0259
    100 H          38.5350   31.2190  278.3370 H       1  UNL1        0.0259
    101 H          38.0740   31.3270  276.6170 H       1  UNL1        0.0259
    102 H          41.3950   31.5910  271.3990 H       1  UNL1        0.2103
    103 H          41.2600   28.4550  277.5690 H       1  UNL1        0.2100
    104 H          38.5660   28.6580  278.8580 H       1  UNL1        0.2104
    105 H          39.2530   35.7970  272.1920 H       1  UNL1        0.0937
    106 H          36.9100   35.9810  270.2630 H       1  UNL1        0.0660
    107 H          37.8430   37.8940  272.4570 H       1  UNL1        0.0490
    108 H          35.3130   36.1810  272.4290 H       1  UNL1        0.0306
    109 H          35.7460   37.3440  273.6940 H       1  UNL1        0.0306
    110 H          37.8550   36.0620  274.1500 H       1  UNL1        0.0595
    111 H          35.7780   35.3920  275.3830 H       1  UNL1        0.0255
    112 H          35.3850   34.2490  274.0760 H       1  UNL1        0.0255
    113 H          36.8280   33.9960  275.0450 H       1  UNL1        0.0255
    114 H          38.0590   38.0100  269.8540 H       1  UNL1        0.2101
    115 H          39.7370   28.2470  271.3180 H       1  UNL1        0.0911
    116 H          39.4240   28.5880  268.8440 H       1  UNL1        0.0343
    117 H          40.5140   27.3240  269.4080 H       1  UNL1        0.0343
    118 H          44.0380   28.0410  271.7510 H       1  UNL1        0.0255
    119 H          44.8750   29.4640  271.0870 H       1  UNL1        0.0255
    120 H          43.8480   29.6050  272.5290 H       1  UNL1        0.0255
    121 H          41.8900   27.1840  267.2830 H       1  UNL1        0.0258
    122 H          40.6790   28.2820  266.6180 H       1  UNL1        0.0258
    123 H          42.3820   28.7040  266.5010 H       1  UNL1        0.0258
    124 H          43.6780   30.1440  268.2880 H       1  UNL1        0.2100
@<TRIPOS>BOND
     1   123    70    1
     2     4    71    1
     3   122    70    1
     4    70   121    1
     5    70    66    1
     6     1    71    1
     7    71     7    1
     8    71    73    1
     9   124    74    1
    10    73    66    1
    11    66    67    1
    12    66    65    1
    13    74    67    1
    14   116    65    1
    15    67    13    1
    16    67    68    1
    17    65   117    1
    18    65    64    1
    19     3    59    1
    20   114    61    1
    21     9    59    1
    22    17    41    1
    23    61    53    1
    24    87    42    1
    25    10    28    1
    26   106    53    1
    27    12    68    1
    28    59    62    1
    29    59     6    1
    30    84    40    1
    31    68    75    1
    32    68    69    1
    33    18    41    1
    34    60    28    1
    35    60    52    1
    36    64    72    1
    37    64   115    1
    38    64    75    1
    39    89    42    1
    40    72    26    1
    41    53    52    1
    42    53    54    1
    43    41    19    1
    44    41    27    1
    45    42    88    1
    46    42    29    1
    47   119    69    1
    48    62    54    1
    49    62    58    1
    50    28    27    1
    51    28    29    1
    52    85    40    1
    53   102    48    1
    54     5    58    1
    55    69   118    1
    56    69   120    1
    57    40    86    1
    58    40    25    1
    59    52   105    1
    60    52    63    1
    61    27    26    1
    62    27    15    1
    63    54   107    1
    64    54    55    1
    65    29    48    1
    66    29    30    1
    67    26    25    1
    68    26    16    1
    69    58     2    1
    70    58     8    1
    71   108    55    1
    72    25    14    1
    73    25    24    1
    74    63    56    1
    75    55    56    1
    76    55   109    1
    77    21    30    1
    78    30    20    1
    79    30    31    1
    80    47    24    2
    81    56   110    1
    82    56    57    1
    83    24    51    1
    84    76    31    1
    85   112    57    1
    86    31    32    1
    87    31    43    1
    88    22    32    1
    89    57   113    1
    90    57   111    1
    91    81    39    1
    92    92    43    1
    93    51    37    1
    94    32    23    1
    95    32    33    1
    96    93    44    1
    97    95    44    1
    98    43    91    1
    99    43    90    1
   100    82    39    1
   101    11    35    1
   102    39    83    1
   103    39    38    1
   104    78    37    1
   105    44    33    1
   106    44    94    1
   107    37    38    1
   108    37    36    1
   109    33    34    1
   110    35    49    1
   111    35    36    1
   112    35    34    1
   113    38    79    1
   114    38    80    1
   115   101    46    1
   116    49   103    1
   117    36    46    1
   118    36    50    1
   119    34    77    1
   120    34    45    1
   121    46    99    1
   122    46   100    1
   123    50   104    1
   124    97    45    1
   125    45    98    1
   126    45    96    1
