@<TRIPOS>MOLECULE
232.55484
 124 126 0 0 0
SMALL
GASTEIGER

@<TRIPOS>ATOM
      1 H          36.5760   31.6500  266.9270 H       1  UNL1        0.0524
      2 H          37.7720   34.4360  263.7530 H       1  UNL1        0.0391
      3 H          40.3630   36.9170  265.9700 H       1  UNL1        0.0391
      4 H          35.7530   30.1420  266.5150 H       1  UNL1        0.0524
      5 H          38.0850   36.0870  263.2480 H       1  UNL1        0.0391
      6 H          40.8740   36.3740  264.3560 H       1  UNL1        0.0391
      7 H          36.1670   30.5200  268.2200 H       1  UNL1        0.0524
      8 H          39.3480   34.8580  263.0470 H       1  UNL1        0.0391
      9 H          39.5370   37.5170  264.5500 H       1  UNL1        0.0391
     10 H          40.4140   31.5190  269.5930 H       1  UNL1        0.0629
     11 H          40.0420   30.8410  275.0730 H       1  UNL1        0.0639
     12 H          40.1730   30.0040  268.1070 H       1  UNL1        0.0621
     13 H          39.5550   27.1810  267.0710 H       1  UNL1        0.0648
     14 H          37.3520   31.4620  272.8060 H       1  UNL1        0.0436
     15 H          39.0970   32.6130  272.0400 H       1  UNL1        0.0349
     16 H          39.5280   30.1590  271.5460 H       1  UNL1        0.0608
     17 H          37.5110   32.6110  269.4280 H       1  UNL1        0.0234
     18 H          37.9650   34.0330  270.3890 H       1  UNL1        0.0234
     19 H          36.8550   32.8520  271.0480 H       1  UNL1        0.0234
     20 H          40.5700   34.1950  272.1440 H       1  UNL1        0.0297
     21 H          42.0640   34.5910  271.3530 H       1  UNL1        0.0297
     22 H          40.7690   32.3220  273.9560 H       1  UNL1        0.0429
     23 H          40.5710   33.9210  274.6060 H       1  UNL1        0.0429
     24 C          37.9650   29.5520  273.4140 C.2     1  UNL1        0.3128
     25 C          37.5040   30.4930  272.3120 C.3     1  UNL1        0.0801
     26 C          38.6140   30.6710  271.2290 C.3     1  UNL1        0.0793
     27 C          38.9440   32.1940  271.0380 C.3     1  UNL1        0.0124
     28 C          40.2740   32.3990  270.2270 C.3     1  UNL1        0.0950
     29 C          41.5410   32.4860  271.1510 C.3     1  UNL1        0.0900
     30 C          41.5860   33.8180  271.9700 C.3     1  UNL1       -0.0181
     31 C          42.3000   33.7230  273.3440 C.3     1  UNL1       -0.0284
     32 C          41.3240   33.1460  274.4020 C.3     1  UNL1        0.0016
     33 N          41.8960   32.7190  275.7000 N.3     1  UNL1       -0.2999
     34 C          40.8060   32.1940  276.5940 C.3     1  UNL1        0.0361
     35 C          40.1620   30.8280  276.1570 C.3     1  UNL1        0.1022
     36 C          38.7680   30.4580  276.7780 C.3     1  UNL1        0.1270
     37 C          38.0880   29.3970  275.8300 C.3     1  UNL1        0.1335
     38 C          36.8580   28.7110  276.4550 C.3     1  UNL1       -0.0157
     39 C          36.2720   27.6180  275.5680 C.3     1  UNL1       -0.0618
     40 C          36.1430   30.0210  271.8070 C.3     1  UNL1       -0.0499
     41 C          37.7550   32.9600  270.4350 C.3     1  UNL1       -0.0576
     42 C          42.8190   32.3930  270.2950 C.3     1  UNL1       -0.0336
     43 C          42.8040   35.1000  273.7850 C.3     1  UNL1       -0.0612
     44 C          42.9860   31.7560  275.5200 C.3     1  UNL1       -0.0124
     45 C          41.2960   32.1820  278.0510 C.3     1  UNL1       -0.0470
     46 C          37.8600   31.6820  276.9790 C.3     1  UNL1       -0.0301
     47 O          38.4680   28.4530  273.2410 O.2     1  UNL1       -0.2504
     48 O          41.5300   31.3460  272.0170 O.3     1  UNL1       -0.3863
     49 O          41.0610   29.7360  276.4430 O.3     1  UNL1       -0.3873
     50 O          39.0310   29.8730  278.0710 O.3     1  UNL1       -0.3826
     51 O          37.6680   30.0970  274.6290 O.3     1  UNL1       -0.4581
     52 C          40.0300   33.2820  268.0240 C.3     1  UNL1        0.1871
     53 C          39.5690   34.5650  267.2970 C.3     1  UNL1        0.1214
     54 C          39.5290   34.3220  265.7670 C.3     1  UNL1        0.0429
     55 C          40.8650   33.7410  265.2890 C.3     1  UNL1       -0.0085
     56 C          41.2010   32.4920  266.1050 C.3     1  UNL1        0.0605
     57 C          42.5540   31.9260  265.6950 C.3     1  UNL1       -0.0385
     58 C          38.5490   35.2070  263.7090 C.3     1  UNL1       -0.0127
     59 C          40.0070   36.6240  264.9780 C.3     1  UNL1       -0.0127
     60 O          40.2170   33.5820  269.4160 O.3     1  UNL1       -0.3423
     61 O          38.2560   34.9770  267.7160 O.3     1  UNL1       -0.3852
     62 N          39.0340   35.5330  265.0530 N.3     1  UNL1       -0.3027
     63 O          41.2740   32.8200  267.4900 O.3     1  UNL1       -0.3457
     64 C          38.4690   28.7590  269.7740 C.3     1  UNL1        0.1627
     65 C          37.5250   28.1860  268.7140 C.3     1  UNL1        0.0298
     66 C          37.9000   28.5880  267.2770 C.3     1  UNL1        0.0991
     67 C          39.4020   28.2680  267.0600 C.3     1  UNL1        0.1098
     68 C          40.2450   28.9140  268.1720 C.3     1  UNL1        0.0874
     69 C          41.7200   28.5480  268.0330 C.3     1  UNL1       -0.0361
     70 C          37.0560   27.7940  266.2650 C.3     1  UNL1       -0.0331
     71 C          36.4960   30.5880  267.1810 C.3     1  UNL1        0.0373
     72 O          38.2150   30.1520  269.9470 O.3     1  UNL1       -0.3468
     73 O          37.7760   30.0030  266.9940 O.3     1  UNL1       -0.3740
     74 O          39.8130   28.7610  265.7760 O.3     1  UNL1       -0.3864
     75 O          39.8290   28.4780  269.4670 O.3     1  UNL1       -0.3456
     76 H          43.1750   33.0780  273.2220 H       1  UNL1        0.0311
     77 H          40.0280   32.9650  276.5580 H       1  UNL1        0.0486
     78 H          38.8240   28.6170  275.5970 H       1  UNL1        0.0764
     79 H          36.0640   29.4430  276.6400 H       1  UNL1        0.0299
     80 H          37.1270   28.2590  277.4150 H       1  UNL1        0.0299
     81 H          35.8700   28.0300  274.6380 H       1  UNL1        0.0231
     82 H          37.0270   26.8670  275.3190 H       1  UNL1        0.0231
     83 H          35.4510   27.1140  276.0880 H       1  UNL1        0.0231
     84 H          35.7800   30.6470  270.9870 H       1  UNL1        0.0238
     85 H          36.1680   28.9810  271.4680 H       1  UNL1        0.0238
     86 H          35.4030   30.0690  272.6140 H       1  UNL1        0.0238
     87 H          42.8340   31.4600  269.7200 H       1  UNL1        0.0258
     88 H          43.7150   32.3790  270.9260 H       1  UNL1        0.0258
     89 H          42.9100   33.2330  269.5990 H       1  UNL1        0.0258
     90 H          43.3230   35.0400  274.7470 H       1  UNL1        0.0233
     91 H          41.9790   35.8130  273.8860 H       1  UNL1        0.0233
     92 H          43.5110   35.5050  273.0530 H       1  UNL1        0.0233
     93 H          42.7110   30.9260  274.8600 H       1  UNL1        0.0391
     94 H          43.3340   31.3450  276.4720 H       1  UNL1        0.0391
     95 H          43.8640   32.2520  275.0920 H       1  UNL1        0.0391
     96 H          40.4610   32.0250  278.7410 H       1  UNL1        0.0246
     97 H          42.0350   31.3990  278.2440 H       1  UNL1        0.0246
     98 H          41.7490   33.1450  278.3150 H       1  UNL1        0.0246
     99 H          36.8680   31.3890  277.3360 H       1  UNL1        0.0259
    100 H          38.2520   32.3450  277.7570 H       1  UNL1        0.0259
    101 H          37.7350   32.2570  276.0560 H       1  UNL1        0.0259
    102 H          42.4420   31.1520  272.2950 H       1  UNL1        0.2103
    103 H          40.8350   29.4610  277.3560 H       1  UNL1        0.2100
    104 H          38.1920   29.8330  278.5640 H       1  UNL1        0.2104
    105 H          39.2630   32.5040  267.9190 H       1  UNL1        0.0937
    106 H          40.2600   35.3780  267.5500 H       1  UNL1        0.0660
    107 H          38.7580   33.5510  265.6160 H       1  UNL1        0.0490
    108 H          41.6610   34.4830  265.4270 H       1  UNL1        0.0306
    109 H          40.8230   33.4880  264.2240 H       1  UNL1        0.0306
    110 H          40.4370   31.7190  265.9600 H       1  UNL1        0.0595
    111 H          42.5560   31.6240  264.6430 H       1  UNL1        0.0255
    112 H          43.3510   32.6610  265.8520 H       1  UNL1        0.0255
    113 H          42.8070   31.0570  266.3100 H       1  UNL1        0.0255
    114 H          37.9750   35.6130  267.0270 H       1  UNL1        0.2101
    115 H          38.2480   28.2360  270.7090 H       1  UNL1        0.0911
    116 H          36.4950   28.4800  268.9430 H       1  UNL1        0.0343
    117 H          37.5730   27.0910  268.7830 H       1  UNL1        0.0343
    118 H          41.8650   27.4670  268.1370 H       1  UNL1        0.0255
    119 H          42.1290   28.8630  267.0700 H       1  UNL1        0.0255
    120 H          42.3050   29.0200  268.8300 H       1  UNL1        0.0255
    121 H          37.2860   26.7240  266.3040 H       1  UNL1        0.0258
    122 H          35.9860   27.9050  266.4670 H       1  UNL1        0.0258
    123 H          37.2240   28.1500  265.2420 H       1  UNL1        0.0258
    124 H          39.3350   29.6100  265.6790 H       1  UNL1        0.2100
@<TRIPOS>BOND
     1     8    58    1
     2     5    58    1
     3    58     2    1
     4    58    62    1
     5   109    55    1
     6     6    59    1
     7     9    59    1
     8   111    57    1
     9    59    62    1
    10    59     3    1
    11    62    54    1
    12   123    70    1
    13    55   108    1
    14    55    54    1
    15    55    56    1
    16   107    54    1
    17   124    74    1
    18    57   112    1
    19    57    56    1
    20    57   113    1
    21    54    53    1
    22    74    67    1
    23   110    56    1
    24    56    63    1
    25    70   121    1
    26    70   122    1
    27    70    66    1
    28     4    71    1
    29     1    71    1
    30    73    71    1
    31    73    66    1
    32   114    61    1
    33    67    13    1
    34    67    66    1
    35    67    68    1
    36   119    69    1
    37    71     7    1
    38    66    65    1
    39    53   106    1
    40    53    61    1
    41    53    52    1
    42    63    52    1
    43   105    52    1
    44    52    60    1
    45    69   118    1
    46    69    68    1
    47    69   120    1
    48    12    68    1
    49    68    75    1
    50    65   117    1
    51    65   116    1
    52    65    64    1
    53    60    28    1
    54    17    41    1
    55    75    64    1
    56    10    28    1
    57    89    42    1
    58    87    42    1
    59    64    72    1
    60    64   115    1
    61    72    26    1
    62    28    27    1
    63    28    29    1
    64    42    88    1
    65    42    29    1
    66    18    41    1
    67    41    27    1
    68    41    19    1
    69    84    40    1
    70    27    26    1
    71    27    15    1
    72    29    30    1
    73    29    48    1
    74    26    16    1
    75    26    25    1
    76    21    30    1
    77    85    40    1
    78    40    25    1
    79    40    86    1
    80    30    20    1
    81    30    31    1
    82    48   102    1
    83    25    14    1
    84    25    24    1
    85    92    43    1
    86    76    31    1
    87    47    24    2
    88    31    43    1
    89    31    32    1
    90    24    51    1
    91    43    91    1
    92    43    90    1
    93    22    32    1
    94    32    23    1
    95    32    33    1
    96    51    37    1
    97    81    39    1
    98    93    44    1
    99    11    35    1
   100    95    44    1
   101    82    39    1
   102    44    33    1
   103    44    94    1
   104    39    83    1
   105    39    38    1
   106    78    37    1
   107    33    34    1
   108    37    38    1
   109    37    36    1
   110   101    46    1
   111    35    49    1
   112    35    34    1
   113    35    36    1
   114    49   103    1
   115    38    79    1
   116    38    80    1
   117    77    34    1
   118    34    45    1
   119    36    46    1
   120    36    50    1
   121    46    99    1
   122    46   100    1
   123    45    97    1
   124    45    98    1
   125    45    96    1
   126    50   104    1
