@<TRIPOS>MOLECULE
-21.60737
 50 53 0 0 0
SMALL
GASTEIGER

@<TRIPOS>ATOM
      1  H01        8.6000   14.3140   13.8390 H     1101  6QG1101     0.0780
      2  H02       11.8110   12.8520   16.4340 H     1101  6QG1101     0.0619
      3  H03        5.3400   16.6750   15.8460 H     1101  6QG1101     0.0624
      4  H04        8.7150   19.2870   15.2220 H     1101  6QG1101     0.0624
      5  H05        9.6230   12.9230   15.2940 H     1101  6QG1101     0.0654
      6  H06        8.6430   16.5070   17.4100 H     1101  6QG1101     0.0657
      7  H07       11.2650   17.6470   18.2210 H     1101  6QG1101     0.0314
      8  H08        9.7280   16.4180   20.5790 H     1101  6QG1101     0.0284
      9  H09       10.6610   19.2500   19.8320 H     1101  6QG1101     0.0515
     10  H10        6.6660   19.7840   11.5340 H     1101  6QG1101     0.0294
     11  H11        7.8700   20.9100   20.0330 H     1101  6QG1101     0.1480
     12  H12       12.4410   14.5910   18.0650 H     1101  6QG1101     0.0620
     13  H13        5.1800   17.4430   18.1710 H     1101  6QG1101     0.0621
     14  H14        8.5440   20.0760   17.5300 H     1101  6QG1101     0.0621
     15  H15        6.6580   18.2250   20.0730 H     1101  6QG1101     0.0490
     16  H16        6.8580   14.1280   14.0520 H     1101  6QG1101     0.0780
     17  H17       11.8630   16.4930   19.4080 H     1101  6QG1101     0.0314
     18  H18        8.9220   17.3260   19.3300 H     1101  6QG1101     0.0284
     19  H19       10.9830   18.3370   21.3130 H     1101  6QG1101     0.0515
     20  H20        7.8850   20.1340   12.7720 H     1101  6QG1101     0.0294
     21  H21        5.9070   19.7770   19.6880 H     1101  6QG1101     0.0490
     22  H22        6.1770   19.9600   13.2240 H     1101  6QG1101     0.0294
     23  C1        11.1170   13.6620   16.6490 C.ar  1101  6QG1101    -0.0580
     24  C2         6.0410   17.4260   16.2040 C.ar  1101  6QG1101    -0.0536
     25  C3         7.9240   18.8910   15.8550 C.ar  1101  6QG1101    -0.0536
     26  C7         9.8850   13.7130   15.9910 C.ar  1101  6QG1101    -0.0199
     27  C8         9.3530   15.7140   17.2150 C.ar  1101  6QG1101    -0.0167
     28  C9         7.0520   17.9080   15.3690 C.ar  1101  6QG1101    -0.0127
     29  C10        7.2060   17.4100   14.0180 C.ar  1101  6QG1101     0.0503
     30  C11        6.8640   18.8040   18.0440 C.ar  1101  6QG1101    -0.0319
     31  C12       10.5780   15.6790   17.8910 C.ar  1101  6QG1101    -0.0439
     32  C13        9.0120   14.7610   16.2560 C.ar  1101  6QG1101     0.1214
     33  C14        7.4810   16.1070   13.6410 C.ar  1101  6QG1101     0.1823
     34  C15        7.1820   18.1290   12.7890 C.ar  1101  6QG1101     0.0886
     35  C16       10.9720   16.7880   18.8400 C.3   1101  6QG1101    -0.0260
     36  C19        9.8800   17.2090   19.8350 C.3   1101  6QG1101    -0.0281
     37  C20       10.2410   18.5160   20.5280 C.3   1101  6QG1101     0.0820
     38  C21        6.9640   19.5780   12.5670 C.3   1101  6QG1101    -0.0185
     39  N23        7.9680   19.8940   20.0070 N.3   1101  6QG1101    -0.1902
     40  C4        11.4670   14.6440   17.5830 C.ar  1101  6QG1101    -0.0583
     41  C5         5.9500   17.8690   17.5290 C.ar  1101  6QG1101    -0.0567
     42  C6         7.8270   19.3390   17.1770 C.ar  1101  6QG1101    -0.0567
     43  C17        6.7950   19.1580   19.5160 C.3   1101  6QG1101     0.0421
     44  C18        7.7100   14.7790   14.2770 C.3   1101  6QG1101     0.1502
     45  N22        7.3950   17.3210   11.7460 N.ar  1101  6QG1101    -0.0826
     46  O24        8.0520   18.3460   22.0310 O.2   1101  6QG1101    -0.1582
     47  O25        9.3450   20.5070   21.9680 O.2   1101  6QG1101    -0.1582
     48  O26        7.5760   16.0640   12.2780 O.2   1101  6QG1101    -0.3553
     49  O27        7.7740   14.9080   15.6970 O.3   1101  6QG1101    -0.4842
     50  S28        8.8420   19.3180   21.3140 S.O2  1101  6QG1101     0.0297
@<TRIPOS>BOND
     1     1    44    1
     2     2    23    1
     3     3    24    1
     4     4    25    1
     5     5    26    1
     6     6    27    1
     7     7    35    1
     8     8    36    1
     9     9    37    1
    10    10    38    1
    11    11    39    1
    12    12    40    1
    13    13    41    1
    14    14    42    1
    15    15    43    1
    16    16    44    1
    17    17    35    1
    18    18    36    1
    19    19    37    1
    20    20    38    1
    21    21    43    1
    22    22    38    1
    23    23    26   ar
    24    23    40   ar
    25    24    28   ar
    26    24    41   ar
    27    25    28   ar
    28    25    42   ar
    29    26    32   ar
    30    27    31   ar
    31    27    32   ar
    32    28    29    1
    33    29    33   ar
    34    29    34   ar
    35    30    41   ar
    36    30    42   ar
    37    30    43    1
    38    31    35    1
    39    31    40   ar
    40    32    49    1
    41    33    44    1
    42    33    48   ar
    43    34    38    1
    44    34    45   ar
    45    35    36    1
    46    36    37    1
    47    37    50    1
    48    39    43    1
    49    39    50    1
    50    44    49    1
    51    45    48   ar
    52    46    50    2
    53    47    50    2
