@<TRIPOS>MOLECULE
60.97233
 93 95 0 0 0
SMALL
GASTEIGER

@<TRIPOS>ATOM
      1  H01       32.2310    3.0540    2.9280 H     1399  XBK1399     0.0620
      2  H02       31.4780    5.2040    5.0150 H     1399  XBK1399     0.0689
      3  H03       31.4230    2.8950    5.9370 H     1399  XBK1399     0.0615
      4  H04       31.7820    0.7470    3.7640 H     1399  XBK1399     0.0573
      5  H05       28.2580    6.4020    1.6070 H     1399  XBK1399     0.0573
      6  H06       30.2540    4.2150    0.7830 H     1399  XBK1399     0.0614
      7  H07       27.3520    4.0610    1.9050 H     1399  XBK1399     0.0617
      8  H08       29.5590    1.9990    1.3170 H     1399  XBK1399     0.0618
      9  H09       26.6230    1.6930    2.3110 H     1399  XBK1399     0.0618
     10  H10       28.9420   -0.2670    1.8140 H     1399  XBK1399     0.0617
     11  H11       28.3810   -2.5540    2.2590 H     1399  XBK1399     0.0598
     12  H12       25.9790   -0.6890    2.6740 H     1399  XBK1399     0.0615
     13  H13       28.7830   -3.8350    7.8920 H     1399  XBK1399     0.0342
     14  H14       20.2210   -3.9530    3.7800 H     1399  XBK1399     0.1186
     15  H15       25.8960   -2.9250    8.1880 H     1399  XBK1399     0.0604
     16  H16       26.6350   -4.2750    9.7660 H     1399  XBK1399     0.2098
     17  H17       26.8400   -5.2640    6.4840 H     1399  XBK1399     0.0465
     18  H18       26.0320   -2.5930    5.2220 H     1399  XBK1399     0.0607
     19  H19       26.2930   -5.1290    4.1060 H     1399  XBK1399     0.0319
     20  H20       23.3680   -1.7750    2.4610 H     1399  XBK1399     0.2101
     21  H21       26.5460   -4.1290    1.9250 H     1399  XBK1399     0.0642
     22  H22       20.0420   -5.3840    0.9480 H     1399  XBK1399     0.2100
     23  H23       24.3980   -4.9930    2.9020 H     1399  XBK1399     0.0937
     24  H24       22.7540   -3.5170    4.0710 H     1399  XBK1399     0.0660
     25  H25       21.7950   -5.4770    2.8940 H     1399  XBK1399     0.0512
     26  H26       21.5550   -3.6720    0.4240 H     1399  XBK1399     0.0635
     27  H27       28.9890    1.1590    4.9520 H     1399  XBK1399     0.2098
     28  H28       23.4730   -6.0240    0.9300 H     1399  XBK1399     0.0620
     29  H29       27.5270   -0.2850    6.4190 H     1399  XBK1399     0.2128
     30  H30       22.7680   -5.8110   -1.4460 H     1399  XBK1399     0.0255
     31  H31       29.8900    7.6390    0.1150 H     1399  XBK1399     0.0343
     32  H32       31.9390    8.0200    1.6880 H     1399  XBK1399     0.0734
     33  H33       29.1660    8.4250    2.9260 H     1399  XBK1399     0.0265
     34  H34       31.2980    0.7020    6.8160 H     1399  XBK1399     0.0332
     35  H35       29.7660   -0.9420    4.7110 H     1399  XBK1399     0.0598
     36  H36       29.6820   -0.8970    7.7770 H     1399  XBK1399     0.0342
     37  H37       28.1520   -2.5370    8.9020 H     1399  XBK1399     0.0342
     38  H38       20.2600   -3.0400    2.4570 H     1399  XBK1399     0.1186
     39  H39       27.9350   -4.5530    3.9210 H     1399  XBK1399     0.0319
     40  H40       24.4660   -5.3390   -1.2240 H     1399  XBK1399     0.0255
     41  H41       31.0460    6.3420    0.2640 H     1399  XBK1399     0.0343
     42  H42       29.9260    9.5070    1.7340 H     1399  XBK1399     0.0265
     43  H43       32.0100   -0.5940    5.8560 H     1399  XBK1399     0.0332
     44  H44       30.3460   -2.2160    6.7880 H     1399  XBK1399     0.0342
     45  H45       30.6370    9.2860    3.3470 H     1399  XBK1399     0.0265
     46  H46       23.2420   -4.0950   -1.4300 H     1399  XBK1399     0.0255
     47  H47       23.1200   -4.1650    6.9420 H     1399  XBK1399     0.2951
     48  N         20.3070   -4.0200    2.7650 N.3   1399  XBK1399    -0.3229
     49  C1        26.6370   -3.6800    7.9020 C.3   1399  XBK1399     0.0754
     50  O1        26.5920   -4.7130    8.8970 O.3   1399  XBK1399    -0.3907
     51  C2        26.3240   -4.2950    6.5330 C.3   1399  XBK1399     0.1084
     52  O2        24.0220   -3.8470    7.1500 O.3   1399  XBK1399    -0.4803
     53  C3        24.8400   -4.5840    6.3790 C.2   1399  XBK1399     0.3128
     54  O3        24.3480   -5.3570    5.5670 O.2   1399  XBK1399    -0.2505
     55  C4        26.7630   -3.4000    5.3560 C.3   1399  XBK1399     0.0799
     56  O4        25.0990   -3.0260    2.9240 O.3   1399  XBK1399    -0.3413
     57  C5        26.8970   -4.2190    4.0480 C.3   1399  XBK1399     0.0045
     58  O5        22.4890   -2.2020    2.5350 O.3   1399  XBK1399    -0.3851
     59  C6        26.4570   -3.4540    2.7870 C.3   1399  XBK1399     0.0826
     60  O6        20.8630   -5.6040    0.4600 O.3   1399  XBK1399    -0.3876
     61  C7        24.1570   -4.0110    2.4790 C.3   1399  XBK1399     0.1875
     62  O7        24.1870   -4.0840    1.0540 O.3   1399  XBK1399    -0.3431
     63  C8        22.7680   -3.5480    2.9760 C.3   1399  XBK1399     0.1234
     64  O8        31.1840    6.7370    3.1360 O.3   1399  XBK1399    -0.4582
     65  C9        21.6800   -4.4860    2.4380 C.3   1399  XBK1399     0.0646
     66  O9        32.7210    5.4680    1.9770 O.2   1399  XBK1399    -0.2456
     67  C10       21.8060   -4.6250    0.9070 C.3   1399  XBK1399     0.0987
     68  O10       28.8470    0.5890    5.7340 O.3   1399  XBK1399    -0.3913
     69  C11       23.2410   -5.0270    0.5330 C.3   1399  XBK1399     0.0863
     70  O11       27.1710   -1.0770    6.8790 O.3   1399  XBK1399    -0.3643
     71  C12       23.4310   -5.0760   -0.9800 C.3   1399  XBK1399    -0.0361
     72  O12       28.0550   -2.8050    5.5660 O.3   1399  XBK1399    -0.3444
     73  C13       27.3530   -2.2790    2.4870 C.2   1399  XBK1399    -0.0555
     74  C14       27.0020   -0.9830    2.4490 C.2   1399  XBK1399    -0.0633
     75  C15       27.9390    0.0550    2.0870 C.2   1399  XBK1399    -0.0620
     76  C16       27.6240    1.3580    2.0460 C.2   1399  XBK1399    -0.0618
     77  C17       28.5790    2.3590    1.6270 C.2   1399  XBK1399    -0.0618
     78  C18       28.3200    3.6750    1.5930 C.2   1399  XBK1399    -0.0621
     79  C19       29.3160    4.6260    1.1570 C.2   1399  XBK1399    -0.0656
     80  C20       29.1730    5.9590    1.2240 C.2   1399  XBK1399    -0.0805
     81  C21       30.2850    6.9000    0.8230 C.3   1399  XBK1399     0.0026
     82  C22       30.9710    7.6160    2.0100 C.3   1399  XBK1399     0.1040
     83  C23       30.1230    8.7760    2.5240 C.3   1399  XBK1399    -0.0274
     84  C24       32.0150    5.6840    2.9460 C.2   1399  XBK1399     0.3322
     85  C25       31.8130    4.7660    4.0830 C.2   1399  XBK1399     0.0225
     86  C26       31.9370    3.4440    3.9010 C.2   1399  XBK1399    -0.0553
     87  C27       31.6400    2.4940    4.9470 C.2   1399  XBK1399    -0.0654
     88  C28       31.5850    1.1680    4.7480 C.2   1399  XBK1399    -0.0816
     89  C29       31.2450    0.1920    5.8460 C.3   1399  XBK1399    -0.0081
     90  C30       29.8490   -0.4370    5.6800 C.3   1399  XBK1399     0.0635
     91  C31       29.5800   -1.4310    6.8230 C.3   1399  XBK1399     0.0276
     92  C32       28.1800   -2.0700    6.7770 C.3   1399  XBK1399     0.1723
     93  C33       28.0210   -3.0450    7.9390 C.3   1399  XBK1399     0.0282
@<TRIPOS>BOND
     1     1    86    1
     2     2    85    1
     3     3    87    1
     4     4    88    1
     5     5    80    1
     6     6    79    1
     7     7    78    1
     8     8    77    1
     9     9    76    1
    10    10    75    1
    11    11    73    1
    12    12    74    1
    13    13    93    1
    14    14    48    1
    15    15    49    1
    16    16    50    1
    17    17    51    1
    18    18    55    1
    19    19    57    1
    20    20    58    1
    21    21    59    1
    22    22    60    1
    23    23    61    1
    24    24    63    1
    25    25    65    1
    26    26    67    1
    27    27    68    1
    28    28    69    1
    29    29    70    1
    30    30    71    1
    31    31    81    1
    32    32    82    1
    33    33    83    1
    34    34    89    1
    35    35    90    1
    36    36    91    1
    37    37    93    1
    38    38    48    1
    39    39    57    1
    40    40    71    1
    41    41    81    1
    42    42    83    1
    43    43    89    1
    44    44    91    1
    45    45    83    1
    46    46    71    1
    47    47    52    1
    48    48    65    1
    49    49    50    1
    50    49    51    1
    51    49    93    1
    52    51    53    1
    53    51    55    1
    54    52    53    1
    55    53    54    2
    56    55    57    1
    57    55    72    1
    58    56    59    1
    59    56    61    1
    60    57    59    1
    61    58    63    1
    62    59    73    1
    63    60    67    1
    64    61    62    1
    65    61    63    1
    66    62    69    1
    67    63    65    1
    68    64    82    1
    69    64    84    1
    70    65    67    1
    71    66    84    2
    72    67    69    1
    73    68    90    1
    74    69    71    1
    75    70    92    1
    76    72    92    1
    77    73    74    2
    78    74    75    1
    79    75    76    2
    80    76    77    1
    81    77    78    2
    82    78    79    1
    83    79    80    2
    84    80    81    1
    85    81    82    1
    86    82    83    1
    87    84    85    1
    88    85    86    2
    89    86    87    1
    90    87    88    2
    91    88    89    1
    92    89    90    1
    93    90    91    1
    94    91    92    1
    95    92    93    1
