@<TRIPOS>MOLECULE
89.54614
 93 95 0 0 0
SMALL
GASTEIGER

@<TRIPOS>ATOM
      1 H          30.0410   -5.6120   -4.5710 H       1  UNL1        0.0620
      2 H          33.0320   -4.8490   -4.3770 H       1  UNL1        0.0689
      3 H          31.9030   -5.6100   -2.0870 H       1  UNL1        0.0615
      4 H          29.3600   -7.1590   -2.8620 H       1  UNL1        0.0573
      5 H          31.7470   -8.5560   -4.8660 H       1  UNL1        0.0573
      6 H          30.9000   -7.5430   -7.6400 H       1  UNL1        0.0614
      7 H          28.7040   -7.6550   -6.6860 H       1  UNL1        0.0617
      8 H          29.8570   -9.8100   -4.8160 H       1  UNL1        0.0618
      9 H          27.0170   -8.5770   -5.1500 H       1  UNL1        0.0618
     10 H          28.2740  -10.5510   -3.1530 H       1  UNL1        0.0617
     11 H          26.7340  -11.2770   -1.4480 H       1  UNL1        0.0598
     12 H          25.4730   -9.1980   -3.3150 H       1  UNL1        0.0615
     13 H          28.1520   -9.7600    3.2380 H       1  UNL1        0.0342
     14 H          20.7870   -5.5700   -0.3350 H       1  UNL1        0.1186
     15 H          25.5150   -8.3570    3.8990 H       1  UNL1        0.0604
     16 H          26.6990   -9.1550    5.6220 H       1  UNL1        0.2098
     17 H          25.9000  -11.2330    2.9320 H       1  UNL1        0.0465
     18 H          24.7980   -8.9140    1.2410 H       1  UNL1        0.0607
     19 H          23.9400  -11.2700    0.8500 H       1  UNL1        0.0319
     20 H          23.2340   -7.8340   -2.6030 H       1  UNL1        0.2101
     21 H          24.0550  -11.3470   -1.4650 H       1  UNL1        0.0642
     22 H          18.4000   -7.6080   -0.7860 H       1  UNL1        0.2100
     23 H          22.6550   -9.4790    0.3310 H       1  UNL1        0.0937
     24 H          22.8830   -7.0930   -0.3340 H       1  UNL1        0.0660
     25 H          20.6580   -7.7600    0.5270 H       1  UNL1        0.0512
     26 H          19.9140   -8.4400   -2.3720 H       1  UNL1        0.0635
     27 H          28.1390   -5.7910   -1.0260 H       1  UNL1        0.2098
     28 H          20.4370  -10.3300    0.0010 H       1  UNL1        0.0620
     29 H          26.8710   -6.6660    1.0200 H       1  UNL1        0.2128
     30 H          18.6890  -11.1650   -1.5560 H       1  UNL1        0.0255
     31 H          33.9420   -8.3580   -6.3140 H       1  UNL1        0.0343
     32 H          34.3400   -5.7400   -6.5570 H       1  UNL1        0.0734
     33 H          33.0500   -7.3210   -8.8330 H       1  UNL1        0.0265
     34 H          30.7190   -6.6490   -0.1520 H       1  UNL1        0.0332
     35 H          28.1220   -8.1190   -0.9160 H       1  UNL1        0.0598
     36 H          29.2610   -7.3960    1.8310 H       1  UNL1        0.0342
     37 H          27.9400   -8.1090    3.8140 H       1  UNL1        0.0342
     38 H          20.4940   -6.0640   -1.8360 H       1  UNL1        0.1186
     39 H          25.5790  -11.7920    0.5230 H       1  UNL1        0.0319
     40 H          20.1870  -12.1100   -1.6890 H       1  UNL1        0.0255
     41 H          33.5900   -7.2460   -5.0360 H       1  UNL1        0.0343
     42 H          34.7630   -7.3940   -8.3590 H       1  UNL1        0.0265
     43 H          30.6490   -8.2990   -0.8030 H       1  UNL1        0.0332
     44 H          29.3420   -9.0310    1.1340 H       1  UNL1        0.0342
     45 H          34.0620   -5.8940   -9.0000 H       1  UNL1        0.0265
     46 H          19.7980  -10.9250   -2.9270 H       1  UNL1        0.0255
     47 H          22.7750  -11.4840    4.1750 H       1  UNL1        0.2951
     48 N          20.2400   -6.2560   -0.8580 N.3     1  UNL1       -0.3229
     49 C          26.1260   -9.2560    3.7530 C.3     1  UNL1        0.0754
     50 O          26.3250   -9.8430    5.0430 O.3     1  UNL1       -0.3907
     51 C          25.4120  -10.2520    2.8430 C.3     1  UNL1        0.1084
     52 O          23.7110  -11.5490    3.8940 O.3     1  UNL1       -0.4803
     53 C          23.9790  -10.3730    3.2950 C.2     1  UNL1        0.3128
     54 O          23.0920   -9.5510    3.1210 O.2     1  UNL1       -0.2505
     55 C          25.4360   -9.7960    1.3700 C.3     1  UNL1        0.0799
     56 O          24.0550   -9.2950   -1.2010 O.3     1  UNL1       -0.3413
     57 C          24.9060  -10.9260    0.4600 C.3     1  UNL1        0.0045
     58 O          22.4310   -7.3570   -2.3080 O.3     1  UNL1       -0.3851
     59 C          24.6860  -10.5640   -1.0240 C.3     1  UNL1        0.0826
     60 O          18.5770   -8.5720   -0.8210 O.3     1  UNL1       -0.3876
     61 C          22.7030   -9.2270   -0.7340 C.3     1  UNL1        0.1875
     62 O          21.8770  -10.1240   -1.4740 O.3     1  UNL1       -0.3431
     63 C          22.2520   -7.7600   -0.9330 C.3     1  UNL1        0.1234
     64 O          32.3820   -5.3970   -7.1090 O.3     1  UNL1       -0.4582
     65 C          20.7750   -7.6090   -0.5540 C.3     1  UNL1        0.0646
     66 O          30.9270   -3.8090   -6.4640 O.2     1  UNL1       -0.2456
     67 C          19.9240   -8.6590   -1.2960 C.3     1  UNL1        0.0987
     68 O          28.0740   -6.2140   -0.1480 O.3     1  UNL1       -0.3913
     69 C          20.5040  -10.0630   -1.0630 C.3     1  UNL1        0.0863
     70 O          26.5390   -7.2440    1.7400 O.3     1  UNL1       -0.3643
     71 C          19.7410  -11.1220   -1.8510 C.3     1  UNL1       -0.0361
     72 O          26.7660   -9.4510    0.9590 O.3     1  UNL1       -0.3444
     73 C          25.9740  -10.5900   -1.8150 C.2     1  UNL1       -0.0555
     74 C          26.2320   -9.8700   -2.9190 C.2     1  UNL1       -0.0633
     75 C          27.5030   -9.9290   -3.6030 C.2     1  UNL1       -0.0620
     76 C          27.7780   -9.2140   -4.7040 C.2     1  UNL1       -0.0618
     77 C          29.1070   -9.1700   -5.2750 C.2     1  UNL1       -0.0618
     78 C          29.4580   -8.2990   -6.2330 C.2     1  UNL1       -0.0621
     79 C          30.8150   -8.0200   -6.6660 C.2     1  UNL1       -0.0656
     80 C          31.8800   -8.1140   -5.8530 C.2     1  UNL1       -0.0805
     81 C          33.2590   -7.5450   -6.0400 C.3     1  UNL1        0.0026
     82 C          33.4940   -6.3180   -6.9490 C.3     1  UNL1        0.1040
     83 C          33.8680   -6.7640   -8.3630 C.3     1  UNL1       -0.0274
     84 C          31.7570   -4.6610   -6.1660 C.2     1  UNL1        0.3322
     85 C          32.0320   -4.9790   -4.7620 C.2     1  UNL1        0.0225
     86 C          31.0020   -5.4850   -4.0680 C.2     1  UNL1       -0.0553
     87 C          31.0730   -5.9480   -2.7030 C.2     1  UNL1       -0.0654
     88 C          30.1540   -6.7940   -2.2110 C.2     1  UNL1       -0.0816
     89 C          30.1480   -7.3240   -0.8010 C.3     1  UNL1       -0.0081
     90 C          28.7200   -7.4920   -0.2460 C.3     1  UNL1        0.0635
     91 C          28.7550   -8.1050    1.1620 C.3     1  UNL1        0.0276
     92 C          27.3560   -8.4070    1.7370 C.3     1  UNL1        0.1723
     93 C          27.4910   -8.8850    3.1820 C.3     1  UNL1        0.0282
@<TRIPOS>BOND
     1    45    83    1
     2    33    83    1
     3    83    42    1
     4    83    82    1
     5     6    79    1
     6    64    82    1
     7    64    84    1
     8    82    32    1
     9    82    81    1
    10     7    78    1
    11    79    78    1
    12    79    80    2
    13    66    84    2
    14    31    81    1
    15    78    77    2
    16    84    85    1
    17    81    80    1
    18    81    41    1
    19    80     5    1
    20    77     8    1
    21    77    76    1
    22     9    76    1
    23    85     2    1
    24    85    86    2
    25    76    75    2
    26     1    86    1
    27    86    87    1
    28    75    10    1
    29    75    74    1
    30    12    74    1
    31    46    71    1
    32    74    73    2
    33     4    88    1
    34    87    88    2
    35    87     3    1
    36    20    58    1
    37    26    67    1
    38    58    63    1
    39    88    89    1
    40    71    40    1
    41    71    30    1
    42    71    69    1
    43    38    48    1
    44    73    11    1
    45    73    59    1
    46    62    69    1
    47    62    61    1
    48    21    59    1
    49    67    69    1
    50    67    60    1
    51    67    65    1
    52    56    59    1
    53    56    61    1
    54    69    28    1
    55    27    68    1
    56    59    57    1
    57    63    61    1
    58    63    65    1
    59    63    24    1
    60    35    90    1
    61    48    65    1
    62    48    14    1
    63    60    22    1
    64    43    89    1
    65    89    90    1
    66    89    34    1
    67    61    23    1
    68    65    25    1
    69    90    68    1
    70    90    91    1
    71    57    39    1
    72    57    19    1
    73    57    55    1
    74    72    55    1
    75    72    92    1
    76    29    70    1
    77    44    91    1
    78    91    92    1
    79    91    36    1
    80    18    55    1
    81    55    51    1
    82    92    70    1
    83    92    93    1
    84    51    17    1
    85    51    53    1
    86    51    49    1
    87    54    53    2
    88    93    13    1
    89    93    49    1
    90    93    37    1
    91    53    52    1
    92    49    15    1
    93    49    50    1
    94    52    47    1
    95    50    16    1
