@<TRIPOS>MOLECULE
82.86691
 93 95 0 0 0
SMALL
GASTEIGER

@<TRIPOS>ATOM
      1 H          28.6180   -7.0240   -4.8720 H       1  UNL1        0.0620
      2 H          28.5320   -3.9740   -4.4270 H       1  UNL1        0.0689
      3 H          28.6640   -5.2630   -2.3050 H       1  UNL1        0.0615
      4 H          28.6420   -8.2870   -2.8270 H       1  UNL1        0.0573
      5 H          30.7680   -7.7560   -6.0650 H       1  UNL1        0.0573
      6 H          33.1620   -5.9260   -6.6960 H       1  UNL1        0.0614
      7 H          31.8090   -7.0640   -4.1410 H       1  UNL1        0.0617
      8 H          34.3600   -5.3740   -4.4490 H       1  UNL1        0.0618
      9 H          32.4020   -6.0960   -2.1610 H       1  UNL1        0.0618
     10 H          35.2100   -4.8530   -2.0010 H       1  UNL1        0.0617
     11 H          35.6670   -4.5130    0.5880 H       1  UNL1        0.0598
     12 H          32.7510   -5.0680   -0.1320 H       1  UNL1        0.0615
     13 H          30.5460   -8.1220    3.8350 H       1  UNL1        0.0342
     14 H          36.2630    0.3730    5.7490 H       1  UNL1        0.1186
     15 H          32.7990   -9.6420    2.4440 H       1  UNL1        0.0604
     16 H          31.7960  -10.7090    4.1130 H       1  UNL1        0.2098
     17 H          33.0150   -7.4860    4.5960 H       1  UNL1        0.0465
     18 H          33.7340   -7.1520    1.6240 H       1  UNL1        0.0607
     19 H          35.1330   -5.7940    3.1880 H       1  UNL1        0.0319
     20 H          35.4270   -1.1870    2.1250 H       1  UNL1        0.2101
     21 H          32.9630   -4.0150    1.9530 H       1  UNL1        0.0642
     22 H          33.2280    1.2690    6.1030 H       1  UNL1        0.2100
     23 H          34.0090   -3.1810    4.5100 H       1  UNL1        0.0937
     24 H          36.0850   -1.8110    4.3760 H       1  UNL1        0.0660
     25 H          34.4160   -1.0700    6.0490 H       1  UNL1        0.0512
     26 H          33.1990    0.6750    3.8380 H       1  UNL1        0.0635
     27 H          30.4890   -4.9010    0.0960 H       1  UNL1        0.2098
     28 H          32.0810   -1.8830    5.1340 H       1  UNL1        0.0620
     29 H          31.5830   -7.3170   -0.0050 H       1  UNL1        0.2128
     30 H          30.3210   -0.2470    4.4960 H       1  UNL1        0.0255
     31 H          30.5200   -7.9350   -8.4200 H       1  UNL1        0.0343
     32 H          30.4470   -4.8950   -8.1770 H       1  UNL1        0.0734
     33 H          28.4940   -6.8870   -9.4590 H       1  UNL1        0.0265
     34 H          29.6850   -8.3980   -0.7120 H       1  UNL1        0.0332
     35 H          28.4640   -5.7430    0.1920 H       1  UNL1        0.0598
     36 H          28.8920   -7.6430    1.8840 H       1  UNL1        0.0342
     37 H          30.3930   -9.3730    2.6050 H       1  UNL1        0.0342
     38 H          35.5470    1.1480    4.5380 H       1  UNL1        0.1186
     39 H          33.6870   -5.2370    3.9960 H       1  UNL1        0.0319
     40 H          30.3110   -1.6670    3.4280 H       1  UNL1        0.0255
     41 H          31.7910   -6.7720   -8.7820 H       1  UNL1        0.0343
     42 H          29.6990   -5.9170  -10.3400 H       1  UNL1        0.0265
     43 H          27.9970   -8.0920   -0.3590 H       1  UNL1        0.0332
     44 H          29.4990   -6.0420    2.2590 H       1  UNL1        0.0342
     45 H          28.3450   -5.1370   -9.4940 H       1  UNL1        0.0265
     46 H          31.0030   -0.1570    2.8550 H       1  UNL1        0.0255
     47 H          36.1280   -9.3650    3.0620 H       1  UNL1        0.2951
     48 N          35.3440    0.6940    5.4380 N.3     1  UNL1       -0.3229
     49 C          32.4030   -9.0470    3.2750 C.3     1  UNL1        0.0754
     50 O          32.2830   -9.9180    4.4060 O.3     1  UNL1       -0.3907
     51 C          33.3370   -7.8900    3.6260 C.3     1  UNL1        0.1084
     52 O          35.2050   -9.1550    2.8050 O.3     1  UNL1       -0.4803
     53 C          34.7540   -8.3750    3.8040 C.2     1  UNL1        0.3128
     54 O          35.5080   -8.0430    4.7060 O.2     1  UNL1       -0.2505
     55 C          33.2880   -6.7870    2.5570 C.3     1  UNL1        0.0799
     56 O          34.7770   -3.2340    2.5780 O.3     1  UNL1       -0.3413
     57 C          34.0790   -5.5410    3.0190 C.3     1  UNL1        0.0045
     58 O          35.4500   -0.5690    2.8860 O.3     1  UNL1       -0.3851
     59 C          34.0060   -4.3320    2.0720 C.3     1  UNL1        0.0826
     60 O          32.5110    0.6880    5.7720 O.3     1  UNL1       -0.3876
     61 C          34.1550   -2.5170    3.6500 C.3     1  UNL1        0.1875
     62 O          32.9010   -1.9790    3.2350 O.3     1  UNL1       -0.3431
     63 C          35.1360   -1.3830    4.0350 C.3     1  UNL1        0.1234
     64 O          29.0380   -5.9420   -7.0260 O.3     1  UNL1       -0.4582
     65 C          34.5130   -0.4950    5.1200 C.3     1  UNL1        0.0646
     66 O          28.7870   -3.6590   -6.9510 O.2     1  UNL1       -0.2456
     67 C          33.1120   -0.0200    4.6830 C.3     1  UNL1        0.0987
     68 O          30.4300   -5.7510   -0.3810 O.3     1  UNL1       -0.3913
     69 C          32.2560   -1.2270    4.2700 C.3     1  UNL1        0.0863
     70 O          31.6320   -8.0250    0.6700 O.3     1  UNL1       -0.3643
     71 C          30.8940   -0.7930    3.7400 C.3     1  UNL1       -0.0361
     72 O          31.9250   -6.3880    2.2930 O.3     1  UNL1       -0.3444
     73 C          34.5930   -4.6200    0.7100 C.2     1  UNL1       -0.0555
     74 C          33.8150   -4.9650   -0.3220 C.2     1  UNL1       -0.0633
     75 C          34.2290   -5.1950   -1.6840 C.2     1  UNL1       -0.0620
     76 C          33.3680   -5.7610   -2.5410 C.2     1  UNL1       -0.0618
     77 C          33.5420   -5.9020   -3.9690 C.2     1  UNL1       -0.0618
     78 C          32.6150   -6.5620   -4.6780 C.2     1  UNL1       -0.0621
     79 C          32.4910   -6.5530   -6.1170 C.2     1  UNL1       -0.0656
     80 C          31.4410   -7.1640   -6.6860 C.2     1  UNL1       -0.0805
     81 C          30.9600   -6.9830   -8.0980 C.3     1  UNL1        0.0026
     82 C          29.9070   -5.8520   -8.1780 C.3     1  UNL1        0.1040
     83 C          29.0700   -5.9550   -9.4460 C.3     1  UNL1       -0.0274
     84 C          28.7580   -4.7610   -6.4220 C.2     1  UNL1        0.3322
     85 C          28.5680   -4.9180   -4.9610 C.2     1  UNL1        0.0225
     86 C          28.5650   -6.0920   -4.3120 C.2     1  UNL1       -0.0553
     87 C          28.6090   -6.1920   -2.8670 C.2     1  UNL1       -0.0654
     88 C          28.6870   -7.3730   -2.2330 C.2     1  UNL1       -0.0816
     89 C          28.9080   -7.6280   -0.7590 C.3     1  UNL1       -0.0081
     90 C          29.3070   -6.4440    0.1550 C.3     1  UNL1        0.0635
     91 C          29.6450   -6.9000    1.5890 C.3     1  UNL1        0.0276
     92 C          31.0780   -7.4540    1.8390 C.3     1  UNL1        0.1723
     93 C          31.0130   -8.5270    2.9270 C.3     1  UNL1        0.0282
@<TRIPOS>BOND
     1    42    83    1
     2    45    83    1
     3    33    83    1
     4    83    82    1
     5    41    81    1
     6    31    81    1
     7    82    32    1
     8    82    81    1
     9    82    64    1
    10    81    80    1
    11    64    84    1
    12    66    84    2
    13     6    79    1
    14    80    79    2
    15    80     5    1
    16    84    85    1
    17    79    78    1
    18    85     2    1
    19    85    86    2
    20     1    86    1
    21    78     7    1
    22    78    77    2
    23     8    77    1
    24    86    87    1
    25    77    76    1
    26    87     3    1
    27    87    88    2
    28     4    88    1
    29    76     9    1
    30    76    75    2
    31    88    89    1
    32    10    75    1
    33    75    74    1
    34    89    34    1
    35    89    43    1
    36    89    90    1
    37    68    27    1
    38    68    90    1
    39    74    12    1
    40    74    73    2
    41    29    70    1
    42    90    35    1
    43    90    91    1
    44    11    73    1
    45    70    92    1
    46    73    59    1
    47    91    92    1
    48    91    36    1
    49    91    44    1
    50    18    55    1
    51    92    72    1
    52    92    93    1
    53    21    59    1
    54    59    56    1
    55    59    57    1
    56    20    58    1
    57    72    55    1
    58    15    49    1
    59    55    57    1
    60    55    51    1
    61    56    61    1
    62    37    93    1
    63    52    47    1
    64    52    53    1
    65    46    71    1
    66    58    63    1
    67    93    49    1
    68    93    13    1
    69    57    19    1
    70    57    39    1
    71    62    61    1
    72    62    69    1
    73    49    51    1
    74    49    50    1
    75    40    71    1
    76    51    53    1
    77    51    17    1
    78    61    63    1
    79    61    23    1
    80    71    69    1
    81    71    30    1
    82    53    54    2
    83    26    67    1
    84    63    24    1
    85    63    65    1
    86    16    50    1
    87    69    67    1
    88    69    28    1
    89    38    48    1
    90    67    65    1
    91    67    60    1
    92    65    48    1
    93    65    25    1
    94    48    14    1
    95    60    22    1
