@<TRIPOS>MOLECULE
76.59342
 93 95 0 0 0
SMALL
GASTEIGER

@<TRIPOS>ATOM
      1 H          29.0130   -7.8160   -4.7230 H       1  UNL1        0.0620
      2 H          29.1860   -4.7360   -4.7170 H       1  UNL1        0.0689
      3 H          29.1570   -5.7370   -2.4170 H       1  UNL1        0.0615
      4 H          28.6760   -8.7660   -2.5510 H       1  UNL1        0.0573
      5 H          32.6510   -8.1900   -6.7560 H       1  UNL1        0.0573
      6 H          32.5980   -5.1570   -6.2650 H       1  UNL1        0.0614
      7 H          33.5640   -7.5510   -4.5190 H       1  UNL1        0.0617
      8 H          33.2140   -4.5340   -4.0400 H       1  UNL1        0.0618
      9 H          34.1160   -6.8640   -2.1800 H       1  UNL1        0.0618
     10 H          33.4420   -3.8950   -1.7460 H       1  UNL1        0.0617
     11 H          33.2610   -3.2950    0.5380 H       1  UNL1        0.0598
     12 H          34.3760   -6.1370    0.1940 H       1  UNL1        0.0615
     13 H          30.4270   -7.8230    4.1950 H       1  UNL1        0.0342
     14 H          37.0880   -0.4390    6.0610 H       1  UNL1        0.1186
     15 H          32.5510   -9.7530    3.1480 H       1  UNL1        0.0604
     16 H          31.4630  -10.3920    4.9780 H       1  UNL1        0.2098
     17 H          32.9720   -7.2820    4.8800 H       1  UNL1        0.0465
     18 H          33.6730   -7.4710    1.8940 H       1  UNL1        0.0607
     19 H          35.1860   -5.9380    2.7070 H       1  UNL1        0.0319
     20 H          35.6770   -1.4510    2.4270 H       1  UNL1        0.2101
     21 H          32.7240   -4.1120    2.7370 H       1  UNL1        0.0642
     22 H          34.3210    0.9410    6.8100 H       1  UNL1        0.2100
     23 H          34.1060   -3.3950    4.7600 H       1  UNL1        0.0937
     24 H          36.3820   -2.4020    4.5310 H       1  UNL1        0.0660
     25 H          35.0380   -1.5540    6.4300 H       1  UNL1        0.0512
     26 H          33.9760    0.5980    4.5190 H       1  UNL1        0.0635
     27 H          31.1060   -5.5130    0.1070 H       1  UNL1        0.2098
     28 H          32.5210   -1.8400    5.7070 H       1  UNL1        0.0620
     29 H          31.5900   -7.8470    0.3020 H       1  UNL1        0.2128
     30 H          31.0490    0.1410    5.4050 H       1  UNL1        0.0255
     31 H          32.2700   -7.1900   -9.0880 H       1  UNL1        0.0343
     32 H          29.6880   -6.7720   -8.9990 H       1  UNL1        0.0734
     33 H          30.6870   -9.3880   -7.7590 H       1  UNL1        0.0265
     34 H          29.5470   -8.7540   -0.3590 H       1  UNL1        0.0332
     35 H          28.8440   -5.8050    0.0680 H       1  UNL1        0.0598
     36 H          28.8430   -7.6350    1.9970 H       1  UNL1        0.0342
     37 H          30.1770   -9.2660    3.2150 H       1  UNL1        0.0342
     38 H          36.4260    0.5710    5.0020 H       1  UNL1        0.1186
     39 H          34.2240   -5.5260    4.0800 H       1  UNL1        0.0319
     40 H          30.6740   -1.1360    4.2290 H       1  UNL1        0.0255
     41 H          31.7130   -5.7030   -8.3520 H       1  UNL1        0.0343
     42 H          30.6490   -9.0280   -9.5020 H       1  UNL1        0.0265
     43 H          27.9310   -8.0940   -0.1820 H       1  UNL1        0.0332
     44 H          29.5290   -6.0430    2.2550 H       1  UNL1        0.0342
     45 H          29.1470   -9.1280   -8.5580 H       1  UNL1        0.0265
     46 H          31.5830    0.2770    3.7130 H       1  UNL1        0.0255
     47 H          35.8950   -9.6320    3.6660 H       1  UNL1        0.2951
     48 N          36.2220    0.0700    5.8770 N.3     1  UNL1       -0.3229
     49 C          32.2100   -8.9800    3.8460 C.3     1  UNL1        0.0754
     50 O          32.0260   -9.6090    5.1190 O.3     1  UNL1       -0.3907
     51 C          33.2410   -7.8590    3.9840 C.3     1  UNL1        0.1084
     52 O          34.9800   -9.4080    3.3930 O.3     1  UNL1       -0.4803
     53 C          34.6260   -8.4070    4.2190 C.2     1  UNL1        0.3128
     54 O          35.4420   -7.9490    5.0040 O.2     1  UNL1       -0.2505
     55 C          33.2560   -6.9340    2.7540 C.3     1  UNL1        0.0799
     56 O          34.6640   -3.3570    2.7540 O.3     1  UNL1       -0.3413
     57 C          34.1540   -5.6990    2.9990 C.3     1  UNL1        0.0045
     58 O          35.8610   -0.9190    3.2290 O.3     1  UNL1       -0.3851
     59 C          33.7220   -4.3700    2.3620 C.3     1  UNL1        0.0826
     60 O          33.4810    0.5350    6.5100 O.3     1  UNL1       -0.3876
     61 C          34.2980   -2.6730    3.9580 C.3     1  UNL1        0.1875
     62 O          33.1300   -1.8850    3.7290 O.3     1  UNL1       -0.3431
     63 C          35.5030   -1.7780    4.3320 C.3     1  UNL1        0.1234
     64 O          29.6330   -7.1150   -6.9450 O.3     1  UNL1       -0.4582
     65 C          35.1570   -0.9120    5.5490 C.3     1  UNL1        0.0646
     66 O          29.4390   -4.8510   -7.2820 O.2     1  UNL1       -0.2456
     67 C          33.8370   -0.1530    5.3070 C.3     1  UNL1        0.0987
     68 O          30.7890   -6.3160   -0.3510 O.3     1  UNL1       -0.3913
     69 C          32.7350   -1.1400    4.8880 C.3     1  UNL1        0.0863
     70 O          31.5730   -8.4120    1.1050 O.3     1  UNL1       -0.3643
     71 C          31.4370   -0.4170    4.5480 C.3     1  UNL1       -0.0361
     72 O          31.9280   -6.5100    2.4130 O.3     1  UNL1       -0.3444
     73 C          33.6560   -4.2590    0.8630 C.2     1  UNL1       -0.0555
     74 C          33.9800   -5.1630   -0.0730 C.2     1  UNL1       -0.0633
     75 C          33.7570   -4.9020   -1.4790 C.2     1  UNL1       -0.0620
     76 C          33.8410   -5.8420   -2.4320 C.2     1  UNL1       -0.0618
     77 C          33.4720   -5.5650   -3.8030 C.2     1  UNL1       -0.0618
     78 C          33.3480   -6.5110   -4.7470 C.2     1  UNL1       -0.0621
     79 C          32.8150   -6.2040   -6.0550 C.2     1  UNL1       -0.0656
     80 C          32.4740   -7.1370   -6.9570 C.2     1  UNL1       -0.0805
     81 C          31.7250   -6.7930   -8.2230 C.3     1  UNL1        0.0026
     82 C          30.2630   -7.3020   -8.2300 C.3     1  UNL1        0.1040
     83 C          30.1920   -8.7960   -8.5350 C.3     1  UNL1       -0.0274
     84 C          29.3850   -5.8390   -6.5660 C.2     1  UNL1        0.3322
     85 C          29.1630   -5.7470   -5.1050 C.2     1  UNL1        0.0225
     86 C          29.0260   -6.8130   -4.3010 C.2     1  UNL1       -0.0553
     87 C          28.9850   -6.7160   -2.8580 C.2     1  UNL1       -0.0654
     88 C          28.8370   -7.7980   -2.0770 C.2     1  UNL1       -0.0816
     89 C          28.9320   -7.8720   -0.5720 C.3     1  UNL1       -0.0081
     90 C          29.5170   -6.6610    0.1950 C.3     1  UNL1        0.0635
     91 C          29.6700   -6.9790    1.6970 C.3     1  UNL1        0.0276
     92 C          31.0300   -7.5870    2.1230 C.3     1  UNL1        0.1723
     93 C          30.8620   -8.4270    3.3870 C.3     1  UNL1        0.0282
@<TRIPOS>BOND
     1    42    83    1
     2    31    81    1
     3    32    82    1
     4    45    83    1
     5    83    82    1
     6    83    33    1
     7    41    81    1
     8    82    81    1
     9    82    64    1
    10    81    80    1
    11    66    84    2
    12    80     5    1
    13    80    79    2
    14    64    84    1
    15    84    85    1
    16     6    79    1
    17    79    78    1
    18    85     2    1
    19    85    86    2
    20    78     7    1
    21    78    77    2
    22     1    86    1
    23    86    87    1
    24     8    77    1
    25    77    76    1
    26    87     3    1
    27    87    88    2
    28     4    88    1
    29    76     9    1
    30    76    75    2
    31    88    89    1
    32    10    75    1
    33    75    74    1
    34    89    34    1
    35    89    43    1
    36    89    90    1
    37    68    27    1
    38    68    90    1
    39    74    12    1
    40    74    73    2
    41    35    90    1
    42    90    91    1
    43    29    70    1
    44    11    73    1
    45    73    59    1
    46    70    92    1
    47    91    36    1
    48    91    92    1
    49    91    44    1
    50    18    55    1
    51    92    72    1
    52    92    93    1
    53    59    21    1
    54    59    56    1
    55    59    57    1
    56    72    55    1
    57    20    58    1
    58    19    57    1
    59    55    57    1
    60    55    51    1
    61    56    61    1
    62    57    39    1
    63    15    49    1
    64    37    93    1
    65    58    63    1
    66    93    49    1
    67    93    13    1
    68    52    47    1
    69    52    53    1
    70    46    71    1
    71    62    61    1
    72    62    69    1
    73    49    51    1
    74    49    50    1
    75    61    63    1
    76    61    23    1
    77    51    53    1
    78    51    17    1
    79    53    54    2
    80    40    71    1
    81    63    24    1
    82    63    65    1
    83    26    67    1
    84    71    69    1
    85    71    30    1
    86    69    67    1
    87    69    28    1
    88    16    50    1
    89    38    48    1
    90    67    65    1
    91    67    60    1
    92    65    48    1
    93    65    25    1
    94    48    14    1
    95    60    22    1
