@<TRIPOS>MOLECULE
66.17627
 93 95 0 0 0
SMALL
GASTEIGER

@<TRIPOS>ATOM
      1 H          30.4710   -4.9530   -3.9250 H       1  UNL1        0.0620
      2 H          33.4720   -5.6660   -3.7750 H       1  UNL1        0.0689
      3 H          32.1000   -6.9600   -2.1750 H       1  UNL1        0.0615
      4 H          29.1920   -5.9690   -2.0320 H       1  UNL1        0.0573
      5 H          33.7530   -1.0920   -2.9580 H       1  UNL1        0.0573
      6 H          30.8880   -1.6850   -3.8990 H       1  UNL1        0.0614
      7 H          32.1570   -1.5540   -1.0560 H       1  UNL1        0.0617
      8 H          29.3800   -2.2850   -2.1620 H       1  UNL1        0.0618
      9 H          30.5350   -2.2490    0.7290 H       1  UNL1        0.0618
     10 H          27.8310   -3.0580   -0.4990 H       1  UNL1        0.0617
     11 H          26.3120   -4.0140    1.0920 H       1  UNL1        0.0598
     12 H          28.9230   -3.0750    2.4110 H       1  UNL1        0.0615
     13 H          28.7920   -8.4100    4.3540 H       1  UNL1        0.0342
     14 H          20.9410   -2.1870    5.5500 H       1  UNL1        0.1186
     15 H          30.6220   -6.6520    6.0480 H       1  UNL1        0.0604
     16 H          30.1000   -8.6540    6.8800 H       1  UNL1        0.2098
     17 H          27.5780   -6.5090    5.8370 H       1  UNL1        0.0465
     18 H          29.5370   -4.4870    4.6080 H       1  UNL1        0.0607
     19 H          27.8040   -3.1080    4.4810 H       1  UNL1        0.0319
     20 H          23.4890   -2.7780    2.5060 H       1  UNL1        0.2101
     21 H          26.2470   -5.3770    3.1270 H       1  UNL1        0.0642
     22 H          19.9610   -5.2120    5.4160 H       1  UNL1        0.2100
     23 H          24.7000   -4.4600    5.2230 H       1  UNL1        0.0937
     24 H          23.4350   -2.3380    4.8760 H       1  UNL1        0.0660
     25 H          22.2190   -4.0910    6.1280 H       1  UNL1        0.0512
     26 H          21.1900   -5.1080    3.4220 H       1  UNL1        0.0635
     27 H          31.0950   -5.1890    0.1440 H       1  UNL1        0.2098
     28 H          23.2580   -6.3680    5.3220 H       1  UNL1        0.0620
     29 H          31.3070   -5.7980    2.5910 H       1  UNL1        0.2128
     30 H          21.8670   -8.0520    4.1380 H       1  UNL1        0.0255
     31 H          33.6510   -0.2140   -5.3720 H       1  UNL1        0.0343
     32 H          34.0330   -2.4590   -6.6980 H       1  UNL1        0.0734
     33 H          35.8170   -1.9050   -4.2700 H       1  UNL1        0.0265
     34 H          30.8480   -8.1000   -0.5170 H       1  UNL1        0.0332
     35 H          29.0520   -5.9400    0.7320 H       1  UNL1        0.0598
     36 H          30.6700   -8.2350    1.9560 H       1  UNL1        0.0342
     37 H          30.5470   -8.5010    4.4820 H       1  UNL1        0.0342
     38 H          20.5500   -2.8010    4.1180 H       1  UNL1        0.1186
     39 H          26.8320   -4.1970    5.3720 H       1  UNL1        0.0319
     40 H          23.5320   -8.0290    3.5200 H       1  UNL1        0.0255
     41 H          32.2840   -1.2510   -5.6860 H       1  UNL1        0.0343
     42 H          35.9130   -1.0550   -5.8320 H       1  UNL1        0.0265
     43 H          29.0900   -8.0560   -0.6520 H       1  UNL1        0.0332
     44 H          28.8960   -8.1380    1.8860 H       1  UNL1        0.0342
     45 H          36.2680   -2.7910   -5.7170 H       1  UNL1        0.0265
     46 H          22.2500   -7.2740    2.5840 H       1  UNL1        0.0255
     47 H          29.7580   -4.1300    8.1210 H       1  UNL1        0.2951
     48 N          20.7180   -3.0740    5.0950 N.3     1  UNL1       -0.3229
     49 C          29.6390   -7.0790    5.8140 C.3     1  UNL1        0.0754
     50 O          29.3440   -8.0420    6.8320 O.3     1  UNL1       -0.3907
     51 C          28.5520   -6.0010    5.8080 C.3     1  UNL1        0.1084
     52 O          29.8710   -4.6550    7.3000 O.3     1  UNL1       -0.4803
     53 C          28.6450   -5.1490    7.0510 C.2     1  UNL1        0.3128
     54 O          27.7020   -4.8220    7.7570 O.2     1  UNL1       -0.2505
     55 C          28.6350   -5.1120    4.5560 C.3     1  UNL1        0.0799
     56 O          25.2960   -3.5560    3.4450 O.3     1  UNL1       -0.3413
     57 C          27.4280   -4.1410    4.4560 C.3     1  UNL1        0.0045
     58 O          22.6710   -2.8190    3.0450 O.3     1  UNL1       -0.3851
     59 C          26.4990   -4.3160    3.2420 C.3     1  UNL1        0.0826
     60 O          20.6060   -5.9220    5.2130 O.3     1  UNL1       -0.3876
     61 C          24.3020   -4.2300    4.2280 C.3     1  UNL1        0.1875
     62 O          23.8920   -5.4360    3.5840 O.3     1  UNL1       -0.3431
     63 C          23.1140   -3.2460    4.3510 C.3     1  UNL1        0.1234
     64 O          33.9020   -3.5840   -4.9570 O.3     1  UNL1       -0.4582
     65 C          21.9420   -3.9160    5.0800 C.3     1  UNL1        0.0646
     66 O          31.8090   -3.7860   -5.9080 O.2     1  UNL1       -0.2456
     67 C          21.6060   -5.2710    4.4250 C.3     1  UNL1        0.0987
     68 O          31.1000   -5.8180    0.8930 O.3     1  UNL1       -0.3913
     69 C          22.8760   -6.1290    4.3200 C.3     1  UNL1        0.0863
     70 O          31.0470   -6.0910    3.4920 O.3     1  UNL1       -0.3643
     71 C          22.6070   -7.4480    3.6050 C.3     1  UNL1       -0.0361
     72 O          28.7150   -5.9120    3.3700 O.3     1  UNL1       -0.3444
     73 C          27.0130   -3.8330    1.9060 C.2     1  UNL1       -0.0555
     74 C          28.1930   -3.2560    1.6270 C.2     1  UNL1       -0.0633
     75 C          28.5730   -2.8940    0.2810 C.2     1  UNL1       -0.0620
     76 C          29.7830   -2.4090   -0.0400 C.2     1  UNL1       -0.0618
     77 C          30.1490   -2.1210   -1.4080 C.2     1  UNL1       -0.0618
     78 C          31.3680   -1.7110   -1.7880 C.2     1  UNL1       -0.0621
     79 C          31.6930   -1.5220   -3.1820 C.2     1  UNL1       -0.0656
     80 C          32.9220   -1.2390   -3.6420 C.2     1  UNL1       -0.0805
     81 C          33.2230   -1.1920   -5.1220 C.3     1  UNL1        0.0026
     82 C          34.1560   -2.3240   -5.6160 C.3     1  UNL1        0.1040
     83 C          35.6210   -1.9900   -5.3440 C.3     1  UNL1       -0.0274
     84 C          32.6820   -4.1460   -5.1380 C.2     1  UNL1        0.3322
     85 C          32.5540   -5.2090   -4.1220 C.2     1  UNL1        0.0225
     86 C          31.3580   -5.4800   -3.5790 C.2     1  UNL1       -0.0553
     87 C          31.2150   -6.3990   -2.4740 C.2     1  UNL1       -0.0654
     88 C          30.0820   -6.5380   -1.7680 C.2     1  UNL1       -0.0816
     89 C          29.9820   -7.4270   -0.5520 C.3     1  UNL1       -0.0081
     90 C          29.9130   -6.6150    0.7560 C.3     1  UNL1        0.0635
     91 C          29.8150   -7.5460    1.9760 C.3     1  UNL1        0.0276
     92 C          29.8270   -6.8010    3.3270 C.3     1  UNL1        0.1723
     93 C          29.7000   -7.8030    4.4720 C.3     1  UNL1        0.0282
@<TRIPOS>BOND
     1    32    82    1
     2    66    84    2
     3    42    83    1
     4    45    83    1
     5    41    81    1
     6    82    83    1
     7    82    81    1
     8    82    64    1
     9    31    81    1
    10    83    33    1
    11    84    64    1
    12    84    85    1
    13    81    80    1
    14    85     2    1
    15    85    86    2
    16     1    86    1
    17     6    79    1
    18    80    79    2
    19    80     5    1
    20    86    87    1
    21    79    78    1
    22    87     3    1
    23    87    88    2
    24     8    77    1
    25     4    88    1
    26    78    77    2
    27    78     7    1
    28    88    89    1
    29    77    76    1
    30    43    89    1
    31    89    34    1
    32    89    90    1
    33    10    75    1
    34    76    75    2
    35    76     9    1
    36    27    68    1
    37    75    74    1
    38    35    90    1
    39    90    68    1
    40    90    91    1
    41    11    73    1
    42    74    73    2
    43    74    12    1
    44    44    91    1
    45    73    59    1
    46    36    91    1
    47    91    92    1
    48    20    58    1
    49    46    71    1
    50    29    70    1
    51    58    63    1
    52    21    59    1
    53    59    56    1
    54    59    57    1
    55    92    72    1
    56    92    70    1
    57    92    93    1
    58    72    55    1
    59    26    67    1
    60    56    61    1
    61    40    71    1
    62    62    61    1
    63    62    69    1
    64    71    30    1
    65    71    69    1
    66    38    48    1
    67    61    63    1
    68    61    23    1
    69    69    67    1
    70    69    28    1
    71    63    24    1
    72    63    65    1
    73    13    93    1
    74    67    65    1
    75    67    60    1
    76    57    19    1
    77    57    55    1
    78    57    39    1
    79    93    37    1
    80    93    49    1
    81    55    18    1
    82    55    51    1
    83    65    48    1
    84    65    25    1
    85    48    14    1
    86    60    22    1
    87    51    49    1
    88    51    17    1
    89    51    53    1
    90    49    15    1
    91    49    50    1
    92    50    16    1
    93    53    52    1
    94    53    54    2
    95    52    47    1
