@<TRIPOS>MOLECULE
68.23594
 93 95 0 0 0
SMALL
GASTEIGER

@<TRIPOS>ATOM
      1 H          30.1980   -4.8490   -5.5400 H       1  UNL1        0.0620
      2 H          32.3230   -7.0770   -5.7210 H       1  UNL1        0.0689
      3 H          30.8380   -7.2400   -3.6520 H       1  UNL1        0.0615
      4 H          28.9340   -4.8270   -3.5100 H       1  UNL1        0.0573
      5 H          33.6080   -1.5680   -7.5550 H       1  UNL1        0.0573
      6 H          30.8800   -2.6310   -6.6420 H       1  UNL1        0.0614
      7 H          32.7880   -0.5460   -5.3730 H       1  UNL1        0.0617
      8 H          30.6700   -2.5030   -4.3060 H       1  UNL1        0.0618
      9 H          32.0650   -0.1120   -2.9050 H       1  UNL1        0.0618
     10 H          30.6290   -2.6660   -1.9710 H       1  UNL1        0.0617
     11 H          30.5280   -2.9560    0.3630 H       1  UNL1        0.0598
     12 H          31.4640   -0.1260   -0.3920 H       1  UNL1        0.0615
     13 H          25.8690   -4.4980    1.7510 H       1  UNL1        0.0342
     14 H          33.3760   -4.5730    6.8010 H       1  UNL1        0.1186
     15 H          27.3220   -4.7520    4.4180 H       1  UNL1        0.0604
     16 H          25.0830   -4.9850    4.3940 H       1  UNL1        0.2098
     17 H          26.5840   -2.1640    2.9480 H       1  UNL1        0.0465
     18 H          29.3630   -3.4300    3.2830 H       1  UNL1        0.0607
     19 H          29.1570   -0.8510    3.3150 H       1  UNL1        0.0319
     20 H          33.5650   -3.0510    3.0690 H       1  UNL1        0.2101
     21 H          31.0660   -0.4220    2.0110 H       1  UNL1        0.0642
     22 H          34.0040   -1.7260    8.0470 H       1  UNL1        0.2100
     23 H          30.7320   -1.8810    4.5770 H       1  UNL1        0.0937
     24 H          32.0250   -4.0050    4.6650 H       1  UNL1        0.0660
     25 H          31.9420   -2.7030    6.7700 H       1  UNL1        0.0512
     26 H          34.4730   -1.2660    5.7950 H       1  UNL1        0.0635
     27 H          30.9610   -5.7350   -0.6160 H       1  UNL1        0.2098
     28 H          31.5980   -0.1960    6.0370 H       1  UNL1        0.0620
     29 H          29.6850   -5.8200    1.7410 H       1  UNL1        0.2128
     30 H          33.3300    1.5190    6.5170 H       1  UNL1        0.0255
     31 H          33.4870   -3.6180   -8.8790 H       1  UNL1        0.0343
     32 H          30.4470   -3.3410   -9.0000 H       1  UNL1        0.0734
     33 H          32.2690   -5.4560  -10.2400 H       1  UNL1        0.0265
     34 H          29.2840   -7.3480   -1.7540 H       1  UNL1        0.0332
     35 H          29.1490   -4.4130   -0.9760 H       1  UNL1        0.0598
     36 H          27.6260   -6.6580    0.4250 H       1  UNL1        0.0342
     37 H          26.3500   -5.9820    2.5670 H       1  UNL1        0.0342
     38 H          34.6010   -3.7360    6.1820 H       1  UNL1        0.1186
     39 H          28.5890   -0.9550    1.6570 H       1  UNL1        0.0319
     40 H          32.5280    1.8200    4.9610 H       1  UNL1        0.0255
     41 H          32.5780   -2.3780   -9.7220 H       1  UNL1        0.0343
     42 H          31.3460   -4.2100  -11.0930 H       1  UNL1        0.0265
     43 H          27.7740   -6.5140   -2.1260 H       1  UNL1        0.0332
     44 H          26.9540   -5.1680   -0.2660 H       1  UNL1        0.0342
     45 H          30.5100   -5.5090  -10.2100 H       1  UNL1        0.0265
     46 H          34.1420    1.1260    4.9830 H       1  UNL1        0.0255
     47 H          27.0040   -0.8600    6.0280 H       1  UNL1        0.2951
     48 N          33.8030   -3.6450    6.8250 N.3     1  UNL1       -0.3229
     49 C          26.7280   -4.1870    3.6890 C.3     1  UNL1        0.0754
     50 O          25.4000   -4.0820    4.2150 O.3     1  UNL1       -0.3907
     51 C          27.3090   -2.7870    3.4900 C.3     1  UNL1        0.1084
     52 O          26.7730   -1.1300    5.1150 O.3     1  UNL1       -0.4803
     53 C          27.5680   -2.1830    4.8460 C.2     1  UNL1        0.3128
     54 O          28.4290   -2.5300    5.6400 O.2     1  UNL1       -0.2505
     55 C          28.6250   -2.8650    2.7010 C.3     1  UNL1        0.0799
     56 O          31.5290   -2.3120    2.7060 O.3     1  UNL1       -0.3413
     57 C          29.2090   -1.4630    2.4080 C.3     1  UNL1        0.0045
     58 O          33.7930   -3.2260    4.0060 O.3     1  UNL1       -0.3851
     59 C          30.6850   -1.4490    1.9440 C.3     1  UNL1        0.0826
     60 O          33.6340   -0.9160    7.6350 O.3     1  UNL1       -0.3876
     61 C          31.7020   -1.9330    4.0740 C.3     1  UNL1        0.1875
     62 O          32.3520   -0.6670    4.1670 O.3     1  UNL1       -0.3431
     63 C          32.5550   -3.0480    4.7250 C.3     1  UNL1        0.1234
     64 O          31.1360   -4.7820   -7.7540 O.3     1  UNL1       -0.4582
     65 C          32.8690   -2.6850    6.1810 C.3     1  UNL1        0.0646
     66 O          33.1330   -5.9170   -7.8920 O.2     1  UNL1       -0.2456
     67 C          33.4770   -1.2700    6.2580 C.3     1  UNL1        0.0987
     68 O          30.2170   -5.8670    0.0030 O.3     1  UNL1       -0.3913
     69 C          32.5680   -0.2680    5.5280 C.3     1  UNL1        0.0863
     70 O          28.9660   -5.6180    2.3800 O.3     1  UNL1       -0.3643
     71 C          33.1800    1.1290    5.5060 C.3     1  UNL1       -0.0361
     72 O          28.3940   -3.5490    1.4550 O.3     1  UNL1       -0.3444
     73 C          30.7970   -1.9150    0.5220 C.2     1  UNL1       -0.0555
     74 C          31.1630   -1.1620   -0.5270 C.2     1  UNL1       -0.0633
     75 C          31.1020   -1.6910   -1.8680 C.2     1  UNL1       -0.0620
     76 C          31.5570   -1.0700   -2.9660 C.2     1  UNL1       -0.0618
     77 C          31.3760   -1.6750   -4.2650 C.2     1  UNL1       -0.0618
     78 C          32.0330   -1.3270   -5.3810 C.2     1  UNL1       -0.0621
     79 C          31.8030   -2.0600   -6.6050 C.2     1  UNL1       -0.0656
     80 C          32.6790   -2.1330   -7.6170 C.2     1  UNL1       -0.0805
     81 C          32.5660   -3.0250   -8.8360 C.3     1  UNL1        0.0026
     82 C          31.3450   -3.9690   -8.9340 C.3     1  UNL1        0.1040
     83 C          31.3720   -4.8320  -10.1930 C.3     1  UNL1       -0.0274
     84 C          32.0950   -5.6290   -7.3180 C.2     1  UNL1        0.3322
     85 C          31.7240   -6.2210   -6.0090 C.2     1  UNL1        0.0225
     86 C          30.7570   -5.7270   -5.2200 C.2     1  UNL1       -0.0553
     87 C          30.3660   -6.3060   -3.9520 C.2     1  UNL1       -0.0654
     88 C          29.4110   -5.7520   -3.1880 C.2     1  UNL1       -0.0816
     89 C          28.8430   -6.3600   -1.9320 C.3     1  UNL1       -0.0081
     90 C          29.0310   -5.4640   -0.6900 C.3     1  UNL1        0.0635
     91 C          27.8240   -5.5910    0.2520 C.3     1  UNL1        0.0276
     92 C          27.9960   -4.9090    1.6230 C.3     1  UNL1        0.1723
     93 C          26.6590   -4.9480    2.3690 C.3     1  UNL1        0.0282
@<TRIPOS>BOND
     1    42    83    1
     2    33    83    1
     3    45    83    1
     4    83    82    1
     5    41    81    1
     6    32    82    1
     7    82    81    1
     8    82    64    1
     9    31    81    1
    10    81    80    1
    11    66    84    2
    12    64    84    1
    13    80     5    1
    14    80    79    2
    15    84    85    1
    16     6    79    1
    17    79    78    1
    18    85     2    1
    19    85    86    2
    20     1    86    1
    21    78     7    1
    22    78    77    2
    23    86    87    1
    24     8    77    1
    25    77    76    1
    26    87     3    1
    27    87    88    2
    28     4    88    1
    29    88    89    1
    30    76     9    1
    31    76    75    2
    32    43    89    1
    33    10    75    1
    34    89    34    1
    35    89    90    1
    36    75    74    1
    37    35    90    1
    38    90    68    1
    39    90    91    1
    40    27    68    1
    41    74    12    1
    42    74    73    2
    43    44    91    1
    44    91    36    1
    45    91    92    1
    46    11    73    1
    47    73    59    1
    48    72    92    1
    49    72    55    1
    50    92    93    1
    51    92    70    1
    52    39    57    1
    53    29    70    1
    54    13    93    1
    55    59    21    1
    56    59    57    1
    57    59    56    1
    58    93    37    1
    59    93    49    1
    60    57    55    1
    61    57    19    1
    62    55    18    1
    63    55    51    1
    64    56    61    1
    65    17    51    1
    66    20    58    1
    67    51    49    1
    68    51    53    1
    69    49    50    1
    70    49    15    1
    71    58    63    1
    72    61    62    1
    73    61    23    1
    74    61    63    1
    75    62    69    1
    76    50    16    1
    77    24    63    1
    78    63    65    1
    79    53    52    1
    80    53    54    2
    81    40    71    1
    82    46    71    1
    83    52    47    1
    84    71    69    1
    85    71    30    1
    86    69    28    1
    87    69    67    1
    88    26    67    1
    89    65    67    1
    90    65    25    1
    91    65    48    1
    92    38    48    1
    93    67    60    1
    94    14    48    1
    95    60    22    1
