@<TRIPOS>MOLECULE
72.70246
 93 95 0 0 0
SMALL
GASTEIGER

@<TRIPOS>ATOM
      1 H          27.8900   -5.2930   -4.2400 H       1  UNL1        0.0620
      2 H          30.5560   -4.1090   -5.2390 H       1  UNL1        0.0689
      3 H          30.7180   -5.2050   -2.9310 H       1  UNL1        0.0615
      4 H          27.9950   -6.4210   -2.1710 H       1  UNL1        0.0573
      5 H          26.5800   -7.3270   -7.0020 H       1  UNL1        0.0573
      6 H          29.4450   -7.0310   -8.0730 H       1  UNL1        0.0614
      7 H          28.2090   -8.8840   -5.8910 H       1  UNL1        0.0617
      8 H          31.0580   -8.2820   -6.8820 H       1  UNL1        0.0618
      9 H          30.0030  -10.0850   -4.5700 H       1  UNL1        0.0618
     10 H          32.7620   -9.0120   -5.4130 H       1  UNL1        0.0617
     11 H          34.3710   -9.1880   -3.7240 H       1  UNL1        0.0598
     12 H          31.8560  -10.8070   -3.0480 H       1  UNL1        0.0615
     13 H          31.3850  -10.5950    2.2310 H       1  UNL1        0.0342
     14 H          40.8020  -10.0450   -1.3860 H       1  UNL1        0.1186
     15 H          30.5010  -13.1760    0.8520 H       1  UNL1        0.0604
     16 H          30.4940  -13.2070    3.0710 H       1  UNL1        0.2098
     17 H          33.3470  -12.2280    1.3820 H       1  UNL1        0.0465
     18 H          31.9930  -12.2210   -1.3770 H       1  UNL1        0.0607
     19 H          34.2350  -12.4210   -1.8720 H       1  UNL1        0.0319
     20 H          37.3260   -8.9410   -3.0660 H       1  UNL1        0.2101
     21 H          34.1970   -9.4330   -1.1380 H       1  UNL1        0.0642
     22 H          40.3250   -8.0830    1.0760 H       1  UNL1        0.2100
     23 H          36.6110  -10.7890   -0.2790 H       1  UNL1        0.0937
     24 H          38.4080  -10.8170   -2.0070 H       1  UNL1        0.0660
     25 H          39.1560  -10.2930    0.2930 H       1  UNL1        0.0512
     26 H          38.6250   -7.3410   -0.3550 H       1  UNL1        0.0635
     27 H          29.1590   -8.5460   -2.7100 H       1  UNL1        0.2098
     28 H          37.0550   -9.2450    1.4840 H       1  UNL1        0.0620
     29 H          29.4360  -10.5170   -1.2800 H       1  UNL1        0.2128
     30 H          37.0930   -6.9010    2.3090 H       1  UNL1        0.0255
     31 H          26.3560   -5.9580   -9.1930 H       1  UNL1        0.0343
     32 H          26.8820   -3.5700   -8.2120 H       1  UNL1        0.0734
     33 H          25.0340   -5.3880   -6.5800 H       1  UNL1        0.0265
     34 H          28.9790   -6.7040   -0.0310 H       1  UNL1        0.0332
     35 H          31.0770   -8.2810   -1.6030 H       1  UNL1        0.0598
     36 H          29.3050   -8.9650    0.8030 H       1  UNL1        0.0342
     37 H          29.7360  -11.1530    1.9590 H       1  UNL1        0.0342
     38 H          40.3590   -8.5310   -1.6920 H       1  UNL1        0.1186
     39 H          34.7430  -11.7700   -0.3560 H       1  UNL1        0.0319
     40 H          35.4900   -7.3510    1.6910 H       1  UNL1        0.0255
     41 H          28.0290   -5.4700   -9.0240 H       1  UNL1        0.0343
     42 H          24.6000   -4.5860   -8.1090 H       1  UNL1        0.0265
     43 H          30.5760   -6.1820   -0.5360 H       1  UNL1        0.0332
     44 H          30.9940   -8.4210    0.9260 H       1  UNL1        0.0342
     45 H          24.9780   -3.6350   -6.6570 H       1  UNL1        0.0265
     46 H          36.5380   -6.3330    0.7160 H       1  UNL1        0.0255
     47 H          32.4670  -15.6150   -0.4360 H       1  UNL1        0.2951
     48 N          40.4580   -9.2040   -0.9200 N.3     1  UNL1       -0.3229
     49 C          31.2460  -12.5710    1.3810 C.3     1  UNL1        0.0754
     50 O          31.3880  -13.1280    2.6930 O.3     1  UNL1       -0.3907
     51 C          32.6000  -12.6050    0.6690 C.3     1  UNL1        0.1084
     52 O          32.0360  -14.7540   -0.2490 O.3     1  UNL1       -0.4803
     53 C          33.0070  -14.0140    0.3150 C.2     1  UNL1        0.3128
     54 O          34.1390  -14.4650    0.4070 O.2     1  UNL1       -0.2505
     55 C          32.6060  -11.7400   -0.6050 C.3     1  UNL1        0.0799
     56 O          35.8240  -10.2510   -2.1270 O.3     1  UNL1       -0.3413
     57 C          34.0350  -11.5960   -1.1750 C.3     1  UNL1        0.0045
     58 O          38.1860   -8.8770   -2.6030 O.3     1  UNL1       -0.3851
     59 C          34.4110  -10.2560   -1.8290 C.3     1  UNL1        0.0826
     60 O          39.4190   -7.9640    1.4320 O.3     1  UNL1       -0.3876
     61 C          36.6690   -9.9680   -1.0020 C.3     1  UNL1        0.1875
     62 O          36.2890   -8.7430   -0.3740 O.3     1  UNL1       -0.3431
     63 C          38.1130   -9.8650   -1.5520 C.3     1  UNL1        0.1234
     64 O          27.4710   -4.4020   -6.3920 O.3     1  UNL1       -0.4582
     65 C          39.0810   -9.4690   -0.4280 C.3     1  UNL1        0.0646
     66 O          29.3460   -3.6440   -7.4790 O.2     1  UNL1       -0.2456
     67 C          38.5690   -8.2140    0.3090 C.3     1  UNL1        0.0987
     68 O          29.1520   -8.9580   -1.8230 O.3     1  UNL1       -0.3913
     69 C          37.1140   -8.4280    0.7530 C.3     1  UNL1        0.0863
     70 O          29.8690  -11.1730   -0.6920 O.3     1  UNL1       -0.3643
     71 C          36.5350   -7.1800    1.4110 C.3     1  UNL1       -0.0361
     72 O          32.0710  -10.4370   -0.3460 O.3     1  UNL1       -0.3444
     73 C          33.7630   -9.8770   -3.1380 C.2     1  UNL1       -0.0555
     74 C          32.5430  -10.1840   -3.6080 C.2     1  UNL1       -0.0633
     75 C          32.0410   -9.5720   -4.8180 C.2     1  UNL1       -0.0620
     76 C          30.7460   -9.5650   -5.1700 C.2     1  UNL1       -0.0618
     77 C          30.2860   -8.7540   -6.2750 C.2     1  UNL1       -0.0618
     78 C          28.9980   -8.4610   -6.5070 C.2     1  UNL1       -0.0621
     79 C          28.6340   -7.4590   -7.4830 C.2     1  UNL1       -0.0656
     80 C          27.4010   -6.9430   -7.6020 C.2     1  UNL1       -0.0805
     81 C          27.1280   -5.7230   -8.4510 C.3     1  UNL1        0.0026
     82 C          26.7200   -4.4810   -7.6220 C.3     1  UNL1        0.1040
     83 C          25.2460   -4.5310   -7.2280 C.3     1  UNL1       -0.0274
     84 C          28.7810   -4.0730   -6.4860 C.2     1  UNL1        0.3322
     85 C          29.5060   -4.3770   -5.2280 C.2     1  UNL1        0.0225
     86 C          28.9420   -5.0170   -4.1930 C.2     1  UNL1       -0.0553
     87 C          29.6600   -5.4440   -3.0110 C.2     1  UNL1       -0.0654
     88 C          29.0530   -6.1790   -2.0670 C.2     1  UNL1       -0.0816
     89 C          29.7080   -6.7740   -0.8490 C.3     1  UNL1       -0.0081
     90 C          30.1320   -8.2460   -1.0490 C.3     1  UNL1        0.0635
     91 C          30.2810   -8.9730    0.3010 C.3     1  UNL1        0.0276
     92 C          30.7390  -10.4420    0.1620 C.3     1  UNL1        0.1723
     93 C          30.7420  -11.1350    1.5230 C.3     1  UNL1        0.0282
@<TRIPOS>BOND
     1    31    81    1
     2    41    81    1
     3    81    82    1
     4    81    80    1
     5    32    82    1
     6    42    83    1
     7     6    79    1
     8    82    83    1
     9    82    64    1
    10    80    79    2
    11    80     5    1
    12    79    78    1
    13    66    84    2
    14    83    45    1
    15    83    33    1
    16     8    77    1
    17    78    77    2
    18    78     7    1
    19    84    64    1
    20    84    85    1
    21    77    76    1
    22    10    75    1
    23     2    85    1
    24    85    86    2
    25    76    75    2
    26    76     9    1
    27    75    74    1
    28     1    86    1
    29    86    87    1
    30    11    73    1
    31    74    73    2
    32    74    12    1
    33    73    59    1
    34    20    58    1
    35    87     3    1
    36    87    88    2
    37    27    68    1
    38    58    63    1
    39     4    88    1
    40    56    59    1
    41    56    61    1
    42    88    89    1
    43    24    63    1
    44    19    57    1
    45    59    57    1
    46    59    21    1
    47    68    90    1
    48    38    48    1
    49    35    90    1
    50    63    61    1
    51    63    65    1
    52    14    48    1
    53    18    55    1
    54    29    70    1
    55    57    55    1
    56    57    39    1
    57    90    89    1
    58    90    91    1
    59    61    62    1
    60    61    23    1
    61    48    65    1
    62    89    43    1
    63    89    34    1
    64    70    92    1
    65    55    72    1
    66    55    51    1
    67    47    52    1
    68    65    25    1
    69    65    67    1
    70    62    69    1
    71    26    67    1
    72    72    92    1
    73    52    53    1
    74    92    91    1
    75    92    93    1
    76    91    36    1
    77    91    44    1
    78    67    69    1
    79    67    60    1
    80    53    54    2
    81    53    51    1
    82    51    49    1
    83    51    17    1
    84    46    71    1
    85    69    71    1
    86    69    28    1
    87    15    49    1
    88    22    60    1
    89    49    93    1
    90    49    50    1
    91    71    40    1
    92    71    30    1
    93    93    37    1
    94    93    13    1
    95    50    16    1
