@<TRIPOS>MOLECULE
62.67617
 93 95 0 0 0
SMALL
GASTEIGER

@<TRIPOS>ATOM
      1 H          29.3910   -4.9030   -4.3800 H       1  UNL1        0.0620
      2 H          32.0890   -5.8380   -5.5560 H       1  UNL1        0.0689
      3 H          31.6570   -6.6880   -3.2070 H       1  UNL1        0.0615
      4 H          28.9110   -5.7450   -2.1870 H       1  UNL1        0.0573
      5 H          26.8810   -1.7910   -6.0470 H       1  UNL1        0.0573
      6 H          26.6700   -4.8010   -5.4620 H       1  UNL1        0.0614
      7 H          26.0710   -2.2670   -3.7520 H       1  UNL1        0.0617
      8 H          26.2670   -5.2700   -3.1090 H       1  UNL1        0.0618
      9 H          25.5880   -2.7680   -1.3870 H       1  UNL1        0.0618
     10 H          26.2280   -5.6960   -0.6940 H       1  UNL1        0.0617
     11 H          26.5320   -5.9990    1.7200 H       1  UNL1        0.0598
     12 H          25.4090   -3.2290    1.0220 H       1  UNL1        0.0615
     13 H          29.1950   -7.8530    4.0070 H       1  UNL1        0.0342
     14 H          21.0940   -1.3460    5.7060 H       1  UNL1        0.1186
     15 H          30.6740   -5.7560    5.6600 H       1  UNL1        0.0604
     16 H          30.4130   -7.7430    6.6140 H       1  UNL1        0.2098
     17 H          27.6550   -6.0620    5.3210 H       1  UNL1        0.0465
     18 H          29.4250   -3.8720    4.0740 H       1  UNL1        0.0607
     19 H          27.5380   -3.0590    2.9430 H       1  UNL1        0.0319
     20 H          22.7060   -4.0790    3.2470 H       1  UNL1        0.2101
     21 H          25.9750   -5.4960    3.9410 H       1  UNL1        0.0642
     22 H          21.2380   -3.3820    8.1640 H       1  UNL1        0.2100
     23 H          25.1390   -3.0410    5.4130 H       1  UNL1        0.0937
     24 H          23.1830   -1.9510    4.3110 H       1  UNL1        0.0660
     25 H          23.0630   -2.1130    6.7750 H       1  UNL1        0.0512
     26 H          21.7150   -4.8440    6.4020 H       1  UNL1        0.0635
     27 H          31.2340   -4.7700   -0.4680 H       1  UNL1        0.2098
     28 H          24.5490   -4.1950    7.4040 H       1  UNL1        0.0620
     29 H          31.4230   -5.0680    2.1330 H       1  UNL1        0.2128
     30 H          23.5590   -6.1840    8.5080 H       1  UNL1        0.0255
     31 H          27.0160   -2.6770   -8.3590 H       1  UNL1        0.0343
     32 H          29.3020   -3.6800   -8.6260 H       1  UNL1        0.0734
     33 H          29.3720   -1.4040   -6.5560 H       1  UNL1        0.0265
     34 H          31.1550   -7.5140   -0.9880 H       1  UNL1        0.0332
     35 H          29.2150   -5.5290    0.3360 H       1  UNL1        0.0598
     36 H          31.0910   -7.5800    1.6360 H       1  UNL1        0.0342
     37 H          30.9370   -7.6930    4.2090 H       1  UNL1        0.0342
     38 H          20.5460   -2.8420    5.5040 H       1  UNL1        0.1186
     39 H          27.1190   -3.1500    4.6210 H       1  UNL1        0.0319
     40 H          24.8520   -6.6410    7.3800 H       1  UNL1        0.0255
     41 H          27.1410   -4.3300   -7.7700 H       1  UNL1        0.0343
     42 H          29.1040   -1.1680   -8.3020 H       1  UNL1        0.0265
     43 H          29.4200   -7.8330   -0.8350 H       1  UNL1        0.0332
     44 H          29.3180   -7.7240    1.5750 H       1  UNL1        0.0342
     45 H          30.6360   -1.8200   -7.6950 H       1  UNL1        0.0265
     46 H          23.1750   -6.8770    6.9140 H       1  UNL1        0.0255
     47 H          27.4970   -3.8890    7.8810 H       1  UNL1        0.2951
     48 N          21.0750   -2.2580    6.1650 N.3     1  UNL1       -0.3229
     49 C          29.7780   -6.3380    5.4100 C.3     1  UNL1        0.0754
     50 O          29.5690   -7.2770    6.4710 O.3     1  UNL1       -0.3907
     51 C          28.5500   -5.4300    5.2940 C.3     1  UNL1        0.1084
     52 O          27.3340   -4.4580    7.0990 O.3     1  UNL1       -0.4803
     53 C          28.5320   -4.5010    6.4820 C.2     1  UNL1        0.3128
     54 O          29.4440   -3.7920    6.8720 O.2     1  UNL1       -0.2505
     55 C          28.6050   -4.6000    4.0040 C.3     1  UNL1        0.0799
     56 O          24.8770   -3.7980    3.4990 O.3     1  UNL1       -0.3413
     57 C          27.3220   -3.7760    3.7480 C.3     1  UNL1        0.0045
     58 O          22.1440   -3.6680    3.9360 O.3     1  UNL1       -0.3851
     59 C          26.0680   -4.5830    3.3450 C.3     1  UNL1        0.0826
     60 O          22.0100   -3.9820    8.2430 O.3     1  UNL1       -0.3876
     61 C          24.4280   -3.6580    4.8510 C.3     1  UNL1        0.1875
     62 O          24.2840   -4.9270    5.4830 O.3     1  UNL1       -0.3431
     63 C          23.0600   -2.9360    4.7770 C.3     1  UNL1        0.1234
     64 O          29.5210   -4.0490   -6.5830 O.3     1  UNL1       -0.4582
     65 C          22.4550   -2.8080    6.1820 C.3     1  UNL1        0.0646
     66 O          31.4940   -4.4760   -7.6760 O.2     1  UNL1       -0.2456
     67 C          22.4380   -4.1770    6.8920 C.3     1  UNL1        0.0987
     68 O          31.2540   -5.2740    0.3680 O.3     1  UNL1       -0.3913
     69 C          23.8360   -4.8100    6.8400 C.3     1  UNL1        0.0863
     70 O          31.1730   -5.3280    3.0460 O.3     1  UNL1       -0.3643
     71 C          23.8500   -6.2050    7.4540 C.3     1  UNL1       -0.0361
     72 O          28.8440   -5.4280    2.8620 O.3     1  UNL1       -0.3444
     73 C          26.1230   -5.0060    1.8920 C.2     1  UNL1       -0.0555
     74 C          25.7810   -4.2370    0.8450 C.2     1  UNL1       -0.0633
     75 C          25.9500   -4.6580   -0.5260 C.2     1  UNL1       -0.0620
     76 C          25.8350   -3.8130   -1.5610 C.2     1  UNL1       -0.0618
     77 C          26.0990   -4.2110   -2.9260 C.2     1  UNL1       -0.0618
     78 C          26.2060   -3.3310   -3.9340 C.2     1  UNL1       -0.0621
     79 C          26.5850   -3.7330   -5.2690 C.2     1  UNL1       -0.0656
     80 C          26.9240   -2.8620   -6.2320 C.2     1  UNL1       -0.0805
     81 C          27.4630   -3.2980   -7.5740 C.3     1  UNL1        0.0026
     82 C          29.0040   -3.2460   -7.6640 C.3     1  UNL1        0.1040
     83 C          29.5510   -1.8250   -7.5510 C.3     1  UNL1       -0.0274
     84 C          30.7550   -4.5800   -6.7100 C.2     1  UNL1        0.3322
     85 C          31.1270   -5.3420   -5.4950 C.2     1  UNL1        0.0225
     86 C          30.3490   -5.4210   -4.4040 C.2     1  UNL1       -0.0553
     87 C          30.6990   -6.1720   -3.2200 C.2     1  UNL1       -0.0654
     88 C          29.8750   -6.2530   -2.1630 C.2     1  UNL1       -0.0816
     89 C          30.1700   -7.0370   -0.9110 C.3     1  UNL1       -0.0081
     90 C          30.1180   -6.1500    0.3460 C.3     1  UNL1        0.0635
     91 C          30.1520   -7.0120    1.6180 C.3     1  UNL1        0.0276
     92 C          30.0490   -6.1840    2.9140 C.3     1  UNL1        0.1723
     93 C          30.0050   -7.1200    4.1210 C.3     1  UNL1        0.0282
@<TRIPOS>BOND
     1    32    82    1
     2    31    81    1
     3    42    83    1
     4    41    81    1
     5    45    83    1
     6    66    84    2
     7    82    81    1
     8    82    83    1
     9    82    64    1
    10    81    80    1
    11    83    33    1
    12    84    64    1
    13    84    85    1
    14    80     5    1
    15    80    79    2
    16     2    85    1
    17    85    86    2
    18     6    79    1
    19    79    78    1
    20    86     1    1
    21    86    87    1
    22    78     7    1
    23    78    77    2
    24    87     3    1
    25    87    88    2
    26     8    77    1
    27    77    76    1
    28     4    88    1
    29    88    89    1
    30    76     9    1
    31    76    75    2
    32    34    89    1
    33    89    43    1
    34    89    90    1
    35    10    75    1
    36    75    74    1
    37    27    68    1
    38    35    90    1
    39    90    68    1
    40    90    91    1
    41    74    12    1
    42    74    73    2
    43    44    91    1
    44    91    36    1
    45    91    92    1
    46    11    73    1
    47    73    59    1
    48    29    70    1
    49    72    92    1
    50    72    55    1
    51    92    70    1
    52    92    93    1
    53    19    57    1
    54    20    58    1
    55    59    56    1
    56    59    57    1
    57    59    21    1
    58    56    61    1
    59    57    55    1
    60    57    39    1
    61    58    63    1
    62    55    18    1
    63    55    51    1
    64    13    93    1
    65    93    37    1
    66    93    49    1
    67    24    63    1
    68    63    61    1
    69    63    65    1
    70    61    23    1
    71    61    62    1
    72    51    17    1
    73    51    49    1
    74    51    53    1
    75    49    15    1
    76    49    50    1
    77    62    69    1
    78    38    48    1
    79    14    48    1
    80    48    65    1
    81    65    25    1
    82    65    67    1
    83    26    67    1
    84    50    16    1
    85    53    54    2
    86    53    52    1
    87    69    67    1
    88    69    28    1
    89    69    71    1
    90    67    60    1
    91    46    71    1
    92    52    47    1
    93    40    71    1
    94    71    30    1
    95    22    60    1
