@<TRIPOS>MOLECULE
67.47408
 93 95 0 0 0
SMALL
GASTEIGER

@<TRIPOS>ATOM
      1 H          28.4630   -5.5940   -5.0230 H       1  UNL1        0.0620
      2 H          30.8660   -7.1480   -6.1830 H       1  UNL1        0.0689
      3 H          30.4780   -7.5990   -3.7400 H       1  UNL1        0.0615
      4 H          28.0250   -6.0850   -2.6640 H       1  UNL1        0.0573
      5 H          31.0930   -2.7190   -7.3360 H       1  UNL1        0.0573
      6 H          33.6100   -4.3600   -6.6760 H       1  UNL1        0.0614
      7 H          31.6460   -2.6860   -4.9350 H       1  UNL1        0.0617
      8 H          34.2080   -4.2750   -4.3120 H       1  UNL1        0.0618
      9 H          32.0840   -2.8680   -2.5260 H       1  UNL1        0.0618
     10 H          34.7410   -4.2940   -1.9110 H       1  UNL1        0.0617
     11 H          35.2260   -4.2890    0.5260 H       1  UNL1        0.0598
     12 H          32.4280   -3.2100   -0.1350 H       1  UNL1        0.0615
     13 H          30.8360   -8.1950    3.2530 H       1  UNL1        0.0342
     14 H          36.3470    0.7000    5.8800 H       1  UNL1        0.1186
     15 H          33.3470   -9.2240    1.8480 H       1  UNL1        0.0604
     16 H          32.4060  -10.6010    3.3180 H       1  UNL1        0.2098
     17 H          33.1980   -7.3380    4.2460 H       1  UNL1        0.0465
     18 H          33.9540   -6.5600    1.3640 H       1  UNL1        0.0607
     19 H          35.1070   -5.2170    3.1000 H       1  UNL1        0.0319
     20 H          34.7400   -0.5400    2.4120 H       1  UNL1        0.2101
     21 H          32.7210   -3.5330    2.1780 H       1  UNL1        0.0642
     22 H          33.4570    0.9230    7.2060 H       1  UNL1        0.2100
     23 H          34.4020   -3.0540    4.7020 H       1  UNL1        0.0937
     24 H          36.1070   -1.2970    4.2600 H       1  UNL1        0.0660
     25 H          34.9210   -1.1080    6.4240 H       1  UNL1        0.0512
     26 H          32.8430    0.6170    4.9680 H       1  UNL1        0.0635
     27 H          30.4840   -5.0550   -1.5930 H       1  UNL1        0.2098
     28 H          32.5780   -2.2530    6.0460 H       1  UNL1        0.0620
     29 H          31.9730   -6.7360   -0.3440 H       1  UNL1        0.2128
     30 H          30.4750   -0.9380    6.2160 H       1  UNL1        0.0255
     31 H          32.9940   -4.5610   -8.9470 H       1  UNL1        0.0343
     32 H          29.9640   -4.2280   -9.3320 H       1  UNL1        0.0734
     33 H          31.9580   -6.2160  -10.5320 H       1  UNL1        0.0265
     34 H          30.1230   -7.9950   -1.4200 H       1  UNL1        0.0332
     35 H          28.7460   -5.5340   -0.1890 H       1  UNL1        0.0598
     36 H          29.2290   -7.6340    1.2890 H       1  UNL1        0.0342
     37 H          30.9180   -9.2860    1.8710 H       1  UNL1        0.0342
     38 H          35.1840    1.4600    5.0740 H       1  UNL1        0.1186
     39 H          33.5870   -4.9620    3.9310 H       1  UNL1        0.0319
     40 H          30.3650   -2.1860    4.9560 H       1  UNL1        0.0255
     41 H          32.1740   -3.1510   -9.6190 H       1  UNL1        0.0343
     42 H          31.2240   -4.8400  -11.3900 H       1  UNL1        0.0265
     43 H          28.4260   -7.9140   -0.9440 H       1  UNL1        0.0332
     44 H          29.6310   -6.0330    1.8630 H       1  UNL1        0.0342
     45 H          30.2240   -6.1930  -10.8140 H       1  UNL1        0.0265
     46 H          30.6080   -0.5090    4.4930 H       1  UNL1        0.0255
     47 H          36.4940   -7.9330    4.5210 H       1  UNL1        0.2951
     48 N          35.3400    0.8670    5.9000 N.3     1  UNL1       -0.3229
     49 C          32.8300   -8.7890    2.7120 C.3     1  UNL1        0.0754
     50 O          32.7770   -9.7990    3.7270 O.3     1  UNL1       -0.3907
     51 C          33.5900   -7.5750    3.2480 C.3     1  UNL1        0.1084
     52 O          35.5650   -7.6250    4.5750 O.3     1  UNL1       -0.4803
     53 C          35.0500   -7.9270    3.3660 C.2     1  UNL1        0.3128
     54 O          35.7670   -8.3820    2.4900 O.2     1  UNL1       -0.2505
     55 C          33.4330   -6.3700    2.3100 C.3     1  UNL1        0.0799
     56 O          34.5650   -2.7150    2.6630 O.3     1  UNL1       -0.3413
     57 C          34.0290   -5.0940    2.9350 C.3     1  UNL1        0.0045
     58 O          34.8790   -0.0280    3.2360 O.3     1  UNL1       -0.3851
     59 C          33.7850   -3.7980    2.1390 C.3     1  UNL1        0.0826
     60 O          32.7740    0.2550    6.9870 O.3     1  UNL1       -0.3876
     61 C          34.1800   -2.2710    3.9680 C.3     1  UNL1        0.1875
     62 O          32.7930   -1.9440    4.0100 O.3     1  UNL1       -0.3431
     63 C          35.0460   -1.0240    4.2680 C.3     1  UNL1        0.1234
     64 O          30.7180   -5.8670   -8.2300 O.3     1  UNL1       -0.4582
     65 C          34.6450   -0.4160    5.6180 C.3     1  UNL1        0.0646
     66 O          28.8200   -4.8450   -7.4090 O.2     1  UNL1       -0.2456
     67 C          33.1220   -0.1800    5.6700 C.3     1  UNL1        0.0987
     68 O          30.7190   -5.4400   -0.7280 O.3     1  UNL1       -0.3913
     69 C          32.3790   -1.4730    5.2990 C.3     1  UNL1        0.0863
     70 O          32.0510   -7.5520    0.1990 O.3     1  UNL1       -0.3643
     71 C          30.8710   -1.2590    5.2470 C.3     1  UNL1       -0.0361
     72 O          32.0460   -6.1240    2.0380 O.3     1  UNL1       -0.3444
     73 C          34.2210   -3.9150    0.7010 C.2     1  UNL1       -0.0555
     74 C          33.4270   -3.5950   -0.3330 C.2     1  UNL1       -0.0633
     75 C          33.8030   -3.7790   -1.7150 C.2     1  UNL1       -0.0620
     76 C          33.0180   -3.3880   -2.7310 C.2     1  UNL1       -0.0618
     77 C          33.3230   -3.6730   -4.1150 C.2     1  UNL1       -0.0618
     78 C          32.5360   -3.2820   -5.1290 C.2     1  UNL1       -0.0621
     79 C          32.7700   -3.6930   -6.4950 C.2     1  UNL1       -0.0656
     80 C          31.9500   -3.3690   -7.5060 C.2     1  UNL1       -0.0805
     81 C          32.0760   -3.9620   -8.8880 C.3     1  UNL1        0.0026
     82 C          30.8640   -4.8490   -9.2450 C.3     1  UNL1        0.1040
     83 C          31.0840   -5.5580  -10.5760 C.3     1  UNL1       -0.0274
     84 C          29.7310   -5.6520   -7.3230 C.2     1  UNL1        0.3322
     85 C          30.0160   -6.4800   -6.1330 C.2     1  UNL1        0.0225
     86 C          29.2930   -6.3000   -5.0180 C.2     1  UNL1       -0.0553
     87 C          29.6030   -6.9500   -3.7670 C.2     1  UNL1       -0.0654
     88 C          28.8990   -6.7330   -2.6450 C.2     1  UNL1       -0.0816
     89 C          29.2710   -7.3160   -1.3040 C.3     1  UNL1       -0.0081
     90 C          29.6050   -6.2110   -0.2770 C.3     1  UNL1        0.0635
     91 C          29.9100   -6.7900    1.1170 C.3     1  UNL1        0.0276
     92 C          31.3740   -7.2100    1.3950 C.3     1  UNL1        0.1723
     93 C          31.3990   -8.4160    2.3360 C.3     1  UNL1        0.0282
@<TRIPOS>BOND
     1    42    83    1
     2    45    83    1
     3    83    33    1
     4    83    82    1
     5    41    81    1
     6    32    82    1
     7    82    81    1
     8    82    64    1
     9    31    81    1
    10    81    80    1
    11    64    84    1
    12    80     5    1
    13    80    79    2
    14    66    84    2
    15    84    85    1
    16     6    79    1
    17    79    78    1
    18     2    85    1
    19    85    86    2
    20    78     7    1
    21    78    77    2
    22     1    86    1
    23    86    87    1
    24     8    77    1
    25    77    76    1
    26    87     3    1
    27    87    88    2
    28    76     9    1
    29    76    75    2
    30     4    88    1
    31    88    89    1
    32    10    75    1
    33    75    74    1
    34    27    68    1
    35    34    89    1
    36    89    43    1
    37    89    90    1
    38    68    90    1
    39    29    70    1
    40    74    12    1
    41    74    73    2
    42    90    35    1
    43    90    91    1
    44    70    92    1
    45    11    73    1
    46    73    59    1
    47    91    36    1
    48    91    92    1
    49    91    44    1
    50    18    55    1
    51    92    72    1
    52    92    93    1
    53    15    49    1
    54    37    93    1
    55    72    55    1
    56    59    21    1
    57    59    56    1
    58    59    57    1
    59    55    57    1
    60    55    51    1
    61    93    49    1
    62    93    13    1
    63    20    58    1
    64    54    53    2
    65    56    61    1
    66    49    51    1
    67    49    50    1
    68    57    19    1
    69    57    39    1
    70    58    63    1
    71    51    53    1
    72    51    17    1
    73    16    50    1
    74    53    52    1
    75    61    62    1
    76    61    63    1
    77    61    23    1
    78    62    69    1
    79    24    63    1
    80    63    65    1
    81    46    71    1
    82    47    52    1
    83    40    71    1
    84    26    67    1
    85    38    48    1
    86    71    69    1
    87    71    30    1
    88    69    67    1
    89    69    28    1
    90    65    67    1
    91    65    48    1
    92    65    25    1
    93    67    60    1
    94    14    48    1
    95    60    22    1
