@<TRIPOS>MOLECULE
79.40035
 93 95 0 0 0
SMALL
GASTEIGER

@<TRIPOS>ATOM
      1 H          28.9220   -6.1470   -4.1700 H       1  UNL1        0.0620
      2 H          31.6230   -5.1180   -3.0930 H       1  UNL1        0.0689
      3 H          29.7480   -4.8830   -1.4390 H       1  UNL1        0.0615
      4 H          27.1930   -6.2030   -2.5110 H       1  UNL1        0.0573
      5 H          34.1120   -9.2430   -4.0120 H       1  UNL1        0.0573
      6 H          34.9980   -6.5520   -2.8250 H       1  UNL1        0.0614
      7 H          33.8160   -9.1360   -1.5450 H       1  UNL1        0.0617
      8 H          34.6620   -6.3860   -0.4570 H       1  UNL1        0.0618
      9 H          33.2270   -8.8140    0.8620 H       1  UNL1        0.0618
     10 H          34.1810   -6.0700    1.8690 H       1  UNL1        0.0617
     11 H          33.6710   -5.6490    4.1680 H       1  UNL1        0.0598
     12 H          32.5520   -8.3500    3.2300 H       1  UNL1        0.0615
     13 H          30.3600   -3.5420    2.6090 H       1  UNL1        0.0342
     14 H          34.5010  -11.4120    9.5620 H       1  UNL1        0.1186
     15 H          28.6520   -3.4200    5.1400 H       1  UNL1        0.0604
     16 H          29.5900   -1.5090    4.3100 H       1  UNL1        0.2098
     17 H          31.5650   -4.2980    4.8970 H       1  UNL1        0.0465
     18 H          29.0890   -6.0540    5.3770 H       1  UNL1        0.0607
     19 H          30.7250   -7.9710    4.9800 H       1  UNL1        0.0319
     20 H          35.1680   -8.5660    6.7970 H       1  UNL1        0.2101
     21 H          32.7080   -5.9640    6.1870 H       1  UNL1        0.0642
     22 H          34.1860   -9.2200   11.8470 H       1  UNL1        0.2100
     23 H          31.8770   -8.4210    7.7270 H       1  UNL1        0.0937
     24 H          33.5580  -10.2290    7.4620 H       1  UNL1        0.0660
     25 H          32.7220   -9.8670    9.7650 H       1  UNL1        0.0512
     26 H          35.0230   -7.8700   10.1260 H       1  UNL1        0.0635
     27 H          27.8370   -3.0450   -0.4040 H       1  UNL1        0.2098
     28 H          32.0020   -7.3370    9.8800 H       1  UNL1        0.0620
     29 H          27.4920   -6.3320    3.3290 H       1  UNL1        0.2128
     30 H          33.1750   -5.7460   11.3920 H       1  UNL1        0.0255
     31 H          35.2400   -8.1810   -6.0010 H       1  UNL1        0.0343
     32 H          33.5060   -6.4850   -6.8160 H       1  UNL1        0.0734
     33 H          32.1100   -8.8920   -5.5010 H       1  UNL1        0.0265
     34 H          26.6940   -6.3400   -0.1110 H       1  UNL1        0.0332
     35 H          27.0370   -4.3900    1.3800 H       1  UNL1        0.0598
     36 H          29.8560   -5.4560    0.9420 H       1  UNL1        0.0342
     37 H          28.6770   -3.0380    2.7570 H       1  UNL1        0.0342
     38 H          35.6080  -10.2530    9.6770 H       1  UNL1        0.1186
     39 H          30.5980   -7.2060    6.5380 H       1  UNL1        0.0319
     40 H          32.6780   -4.9660    9.8760 H       1  UNL1        0.0255
     41 H          35.2780   -6.6240   -5.1790 H       1  UNL1        0.0343
     42 H          33.1450   -9.0560   -6.9450 H       1  UNL1        0.0265
     43 H          26.2520   -4.7750   -0.7660 H       1  UNL1        0.0332
     44 H          28.5810   -6.6010    1.3410 H       1  UNL1        0.0342
     45 H          31.6760   -8.0910   -7.0020 H       1  UNL1        0.0265
     46 H          34.3620   -5.4100   10.1090 H       1  UNL1        0.0255
     47 H          31.5250   -3.6100    8.1960 H       1  UNL1        0.2951
     48 N          34.6830  -10.5240   10.0340 N.3     1  UNL1       -0.3229
     49 C          29.6210   -3.4430    4.6260 C.3     1  UNL1        0.0754
     50 O          30.1930   -2.1360    4.7480 O.3     1  UNL1       -0.3907
     51 C          30.5500   -4.4680    5.2720 C.3     1  UNL1        0.1084
     52 O          31.6640   -3.7080    7.2320 O.3     1  UNL1       -0.4803
     53 C          30.5310   -4.2660    6.7660 C.2     1  UNL1        0.3128
     54 O          29.6360   -4.5880    7.5300 O.2     1  UNL1       -0.2505
     55 C          30.0840   -5.8920    4.9400 C.3     1  UNL1        0.0799
     56 O          33.1390   -7.9740    6.1410 O.3     1  UNL1       -0.3413
     57 C          30.9490   -7.0370    5.5130 C.3     1  UNL1        0.0045
     58 O          35.2100   -9.0460    7.6510 O.3     1  UNL1       -0.3851
     59 C          32.4750   -6.8360    5.5700 C.3     1  UNL1        0.0826
     60 O          33.7370   -8.3720   11.6450 O.3     1  UNL1       -0.3876
     61 C          32.9220   -8.1460    7.5480 C.3     1  UNL1        0.1875
     62 O          33.2370   -6.9530    8.2640 O.3     1  UNL1       -0.3431
     63 C          33.8360   -9.3130    7.9960 C.3     1  UNL1        0.1234
     64 O          32.6430   -6.3420   -4.9340 O.3     1  UNL1       -0.4582
     65 C          33.7300   -9.5100    9.5150 C.3     1  UNL1        0.0646
     66 O          30.6960   -6.0230   -6.1230 O.2     1  UNL1       -0.2456
     67 C          33.9760   -8.1760   10.2480 C.3     1  UNL1        0.0987
     68 O          28.4370   -3.4640    0.2390 O.3     1  UNL1       -0.3913
     69 C          33.0520   -7.0890    9.6780 C.3     1  UNL1        0.0863
     70 O          27.7230   -5.4090    3.5290 O.3     1  UNL1       -0.3643
     71 C          33.3330   -5.7300   10.3100 C.3     1  UNL1       -0.0361
     72 O          29.9420   -6.0780    3.5180 O.3     1  UNL1       -0.3444
     73 C          33.1270   -6.5890    4.2370 C.2     1  UNL1       -0.0555
     74 C          33.0850   -7.4040    3.1710 C.2     1  UNL1       -0.0633
     75 C          33.7090   -7.0490    1.9180 C.2     1  UNL1       -0.0620
     76 C          33.7010   -7.8360    0.8310 C.2     1  UNL1       -0.0618
     77 C          34.2580   -7.3970   -0.4290 C.2     1  UNL1       -0.0618
     78 C          34.2340   -8.1320   -1.5510 C.2     1  UNL1       -0.0621
     79 C          34.6500   -7.5840   -2.8210 C.2     1  UNL1       -0.0656
     80 C          34.4950   -8.2260   -3.9890 C.2     1  UNL1       -0.0805
     81 C          34.6770   -7.5310   -5.3220 C.3     1  UNL1        0.0026
     82 C          33.3180   -7.1260   -5.9470 C.3     1  UNL1        0.1040
     83 C          32.5230   -8.3650   -6.3670 C.3     1  UNL1       -0.0274
     84 C          31.3670   -5.9480   -5.1100 C.2     1  UNL1        0.3322
     85 C          30.8860   -5.5100   -3.7830 C.2     1  UNL1        0.0225
     86 C          29.6050   -5.7070   -3.4450 C.2     1  UNL1       -0.0553
     87 C          29.0810   -5.3890   -2.1340 C.2     1  UNL1       -0.0654
     88 C          27.8240   -5.6930   -1.7820 C.2     1  UNL1       -0.0816
     89 C          27.1130   -5.3980   -0.4870 C.3     1  UNL1       -0.0081
     90 C          27.8280   -4.6800    0.6780 C.3     1  UNL1        0.0635
     91 C          28.8690   -5.5440    1.4130 C.3     1  UNL1        0.0276
     92 C          28.9900   -5.1930    2.9150 C.3     1  UNL1        0.1723
     93 C          29.4220   -3.7440    3.1430 C.3     1  UNL1        0.0282
@<TRIPOS>BOND
     1    45    83    1
     2    42    83    1
     3    32    82    1
     4    83    82    1
     5    83    33    1
     6    66    84    2
     7    31    81    1
     8    82    81    1
     9    82    64    1
    10    81    41    1
    11    81    80    1
    12    84    64    1
    13    84    85    1
    14     1    86    1
    15     5    80    1
    16    80    79    2
    17    85    86    2
    18    85     2    1
    19    86    87    1
    20     6    79    1
    21    79    78    1
    22     4    88    1
    23    87    88    2
    24    87     3    1
    25    88    89    1
    26    78     7    1
    27    78    77    2
    28    43    89    1
    29    89    34    1
    30    89    90    1
    31     8    77    1
    32    77    76    1
    33    27    68    1
    34    68    90    1
    35    90    35    1
    36    90    91    1
    37    76     9    1
    38    76    75    2
    39    36    91    1
    40    44    91    1
    41    91    92    1
    42    10    75    1
    43    75    74    1
    44    13    93    1
    45    37    93    1
    46    92    93    1
    47    92    72    1
    48    92    70    1
    49    93    49    1
    50    74    12    1
    51    74    73    2
    52    29    70    1
    53    72    55    1
    54    11    73    1
    55    73    59    1
    56    16    50    1
    57    49    50    1
    58    49    15    1
    59    49    51    1
    60    17    51    1
    61    55    51    1
    62    55    18    1
    63    55    57    1
    64    19    57    1
    65    51    53    1
    66    57    59    1
    67    57    39    1
    68    59    56    1
    69    59    21    1
    70    56    61    1
    71    53    52    1
    72    53    54    2
    73    20    58    1
    74    52    47    1
    75    24    63    1
    76    61    23    1
    77    61    63    1
    78    61    62    1
    79    58    63    1
    80    63    65    1
    81    62    69    1
    82    65    25    1
    83    65    48    1
    84    65    67    1
    85    14    48    1
    86    38    48    1
    87    69    28    1
    88    69    67    1
    89    69    71    1
    90    40    71    1
    91    46    71    1
    92    26    67    1
    93    67    60    1
    94    71    30    1
    95    60    22    1
