@<TRIPOS>MOLECULE
81.95035
 93 95 0 0 0
SMALL
GASTEIGER

@<TRIPOS>ATOM
      1 H          32.0880   -9.1200   -2.8290 H       1  UNL1        0.0620
      2 H          30.5410  -10.9230   -0.8550 H       1  UNL1        0.0689
      3 H          29.9130   -8.5890   -0.6760 H       1  UNL1        0.0615
      4 H          31.7950   -6.6790   -2.1790 H       1  UNL1        0.0573
      5 H          28.4740  -13.4970   -0.5010 H       1  UNL1        0.0573
      6 H          27.2920  -11.3480   -2.3540 H       1  UNL1        0.0614
      7 H          27.4950  -11.6860    0.7370 H       1  UNL1        0.0617
      8 H          26.7780   -9.2800   -1.0380 H       1  UNL1        0.0618
      9 H          26.8690   -9.7380    2.0440 H       1  UNL1        0.0618
     10 H          26.4430   -7.2320    0.3160 H       1  UNL1        0.0617
     11 H          26.2480   -5.1990    1.6670 H       1  UNL1        0.0598
     12 H          26.4310   -7.7340    3.3930 H       1  UNL1        0.0615
     13 H          29.8750   -7.6950    3.7190 H       1  UNL1        0.0342
     14 H          20.9920   -1.4000    4.8990 H       1  UNL1        0.1186
     15 H          31.0370   -5.6110    5.6310 H       1  UNL1        0.0604
     16 H          31.2000   -7.7300    6.2900 H       1  UNL1        0.2098
     17 H          28.1290   -6.4550    5.2570 H       1  UNL1        0.0465
     18 H          29.4160   -3.7930    4.3930 H       1  UNL1        0.0607
     19 H          27.3210   -3.3280    3.2370 H       1  UNL1        0.0319
     20 H          22.7440   -4.8000    3.6320 H       1  UNL1        0.2101
     21 H          26.0880   -5.7300    4.7040 H       1  UNL1        0.0642
     22 H          21.1950   -2.3730    7.9300 H       1  UNL1        0.2100
     23 H          25.0950   -2.8940    5.2230 H       1  UNL1        0.0937
     24 H          23.1070   -2.4080    3.8080 H       1  UNL1        0.0660
     25 H          22.9820   -1.6370    6.1570 H       1  UNL1        0.0512
     26 H          21.7510   -4.3640    6.8340 H       1  UNL1        0.0635
     27 H          31.6020   -4.0150   -0.4780 H       1  UNL1        0.2098
     28 H          24.5440   -3.2750    7.5290 H       1  UNL1        0.0620
     29 H          31.6920   -4.4750    2.2060 H       1  UNL1        0.2128
     30 H          23.5950   -4.7690    9.2730 H       1  UNL1        0.0255
     31 H          27.7870  -13.9010   -3.3800 H       1  UNL1        0.0343
     32 H          30.3900  -14.0490   -3.8960 H       1  UNL1        0.0734
     33 H          29.1270  -11.2430   -3.9080 H       1  UNL1        0.0265
     34 H          29.0340   -6.3100   -0.9790 H       1  UNL1        0.0332
     35 H          29.6180   -4.6060    0.6000 H       1  UNL1        0.0598
     36 H          31.4950   -6.8870    1.3820 H       1  UNL1        0.0342
     37 H          31.5730   -7.2740    3.9110 H       1  UNL1        0.0342
     38 H          20.5060   -2.8870    5.2650 H       1  UNL1        0.1186
     39 H          27.1290   -3.4340    4.9670 H       1  UNL1        0.0319
     40 H          24.9280   -5.5520    8.4010 H       1  UNL1        0.0255
     41 H          28.8520  -14.8150   -2.3380 H       1  UNL1        0.0343
     42 H          28.7060  -12.5240   -5.0690 H       1  UNL1        0.0265
     43 H          30.0470   -5.1170   -1.7650 H       1  UNL1        0.0332
     44 H          29.7270   -7.1250    1.3370 H       1  UNL1        0.0342
     45 H          30.3400  -11.8720   -5.0150 H       1  UNL1        0.0265
     46 H          23.2720   -6.0060    8.0350 H       1  UNL1        0.0255
     47 H          27.6080   -4.8550    8.1620 H       1  UNL1        0.2951
     48 N          21.0060   -2.0800    5.6610 N.3     1  UNL1       -0.3229
     49 C          30.2580   -6.3170    5.3180 C.3     1  UNL1        0.0754
     50 O          30.2790   -7.4150    6.2370 O.3     1  UNL1       -0.3907
     51 C          28.8790   -5.6600    5.3460 C.3     1  UNL1        0.1084
     52 O          27.5810   -5.3400    7.3100 O.3     1  UNL1       -0.4803
     53 C          28.6990   -4.9580    6.6650 C.2     1  UNL1        0.3128
     54 O          29.4140   -4.0870    7.1340 O.2     1  UNL1       -0.2505
     55 C          28.7400   -4.6400    4.2110 C.3     1  UNL1        0.0799
     56 O          24.9040   -4.3330    3.7410 O.3     1  UNL1       -0.3413
     57 C          27.3230   -4.0400    4.0750 C.3     1  UNL1        0.0045
     58 O          22.1570   -4.1870    4.1200 O.3     1  UNL1       -0.3851
     59 C          26.1540   -5.0300    3.8640 C.3     1  UNL1        0.0826
     60 O          21.9880   -2.8700    8.2220 O.3     1  UNL1       -0.3876
     61 C          24.4290   -3.7180    4.9420 C.3     1  UNL1        0.1875
     62 O          24.3490   -4.6620    6.0060 O.3     1  UNL1       -0.3431
     63 C          23.0280   -3.1480    4.6120 C.3     1  UNL1        0.1234
     64 O          30.7640  -12.7640   -2.3210 O.3     1  UNL1       -0.4582
     65 C          22.4070   -2.5270    5.8700 C.3     1  UNL1        0.0646
     66 O          32.3660  -11.6460   -3.5310 O.2     1  UNL1       -0.2456
     67 C          22.4400   -3.5340    7.0380 C.3     1  UNL1        0.0987
     68 O          31.6330   -4.5850    0.3120 O.3     1  UNL1       -0.3913
     69 C          23.8640   -4.0810    7.2220 C.3     1  UNL1        0.0863
     70 O          31.3910   -4.7770    3.0880 O.3     1  UNL1       -0.3643
     71 C          23.9120   -5.1580    8.3000 C.3     1  UNL1       -0.0361
     72 O          29.0940   -5.1980    2.9450 O.3     1  UNL1       -0.3444
     73 C          26.2690   -5.8020    2.5720 C.2     1  UNL1       -0.0555
     74 C          26.4030   -7.1350    2.4840 C.2     1  UNL1       -0.0633
     75 C          26.5310   -7.8300    1.2200 C.2     1  UNL1       -0.0620
     76 C          26.7700   -9.1480    1.1340 C.2     1  UNL1       -0.0618
     77 C          26.9360   -9.8480   -0.1240 C.2     1  UNL1       -0.0618
     78 C          27.3140  -11.1350   -0.1850 C.2     1  UNL1       -0.0621
     79 C          27.5640  -11.8410   -1.4240 C.2     1  UNL1       -0.0656
     80 C          28.1790  -13.0350   -1.4420 C.2     1  UNL1       -0.0805
     81 C          28.6190  -13.7960   -2.6740 C.3     1  UNL1        0.0026
     82 C          29.8830  -13.2290   -3.3720 C.3     1  UNL1        0.1040
     83 C          29.4850  -12.1560   -4.3930 C.3     1  UNL1       -0.0274
     84 C          31.5970  -11.7350   -2.5900 C.2     1  UNL1        0.3322
     85 C          31.2000  -10.6480   -1.6710 C.2     1  UNL1        0.0225
     86 C          31.4520   -9.3690   -1.9810 C.2     1  UNL1       -0.0553
     87 C          30.7440   -8.2990   -1.3200 C.2     1  UNL1       -0.0654
     88 C          30.9760   -6.9960   -1.5380 C.2     1  UNL1       -0.0816
     89 C          30.0600   -5.9200   -1.0180 C.3     1  UNL1       -0.0081
     90 C          30.4070   -5.3260    0.3550 C.3     1  UNL1        0.0635
     91 C          30.5240   -6.3820    1.4640 C.3     1  UNL1        0.0276
     92 C          30.3980   -5.7670    2.8690 C.3     1  UNL1        0.1723
     93 C          30.5570   -6.8590    3.9240 C.3     1  UNL1        0.0282
@<TRIPOS>BOND
     1    42    83    1
     2    45    83    1
     3    83    33    1
     4    83    82    1
     5    32    82    1
     6    66    84    2
     7    31    81    1
     8    82    81    1
     9    82    64    1
    10     1    86    1
    11    81    41    1
    12    81    80    1
    13    84    64    1
    14    84    85    1
    15     6    79    1
    16     4    88    1
    17    86    85    2
    18    86    87    1
    19    43    89    1
    20    85     2    1
    21    88    87    2
    22    88    89    1
    23    80    79    2
    24    80     5    1
    25    79    78    1
    26    87     3    1
    27     8    77    1
    28    89    34    1
    29    89    90    1
    30    27    68    1
    31    78    77    2
    32    78     7    1
    33    77    76    1
    34    68    90    1
    35    10    75    1
    36    90    35    1
    37    90    91    1
    38    76    75    2
    39    76     9    1
    40    75    74    1
    41    44    91    1
    42    36    91    1
    43    91    92    1
    44    11    73    1
    45    29    70    1
    46    74    73    2
    47    74    12    1
    48    73    59    1
    49    92    72    1
    50    92    70    1
    51    92    93    1
    52    72    55    1
    53    19    57    1
    54    20    58    1
    55    13    93    1
    56    56    59    1
    57    56    61    1
    58    24    63    1
    59    59    57    1
    60    59    21    1
    61    37    93    1
    62    93    49    1
    63    57    55    1
    64    57    39    1
    65    58    63    1
    66    55    18    1
    67    55    51    1
    68    63    61    1
    69    63    65    1
    70    14    48    1
    71    61    23    1
    72    61    62    1
    73    17    51    1
    74    38    48    1
    75    49    51    1
    76    49    15    1
    77    49    50    1
    78    51    53    1
    79    48    65    1
    80    65    25    1
    81    65    67    1
    82    62    69    1
    83    50    16    1
    84    53    54    2
    85    53    52    1
    86    26    67    1
    87    67    69    1
    88    67    60    1
    89    69    28    1
    90    69    71    1
    91    52    47    1
    92    22    60    1
    93    46    71    1
    94    71    40    1
    95    71    30    1
