@<TRIPOS>MOLECULE
84.76536
 93 95 0 0 0
SMALL
GASTEIGER

@<TRIPOS>ATOM
      1 H          29.0950   -4.8710   -5.2350 H       1  UNL1        0.0620
      2 H          30.3200   -7.3720   -6.5620 H       1  UNL1        0.0689
      3 H          30.3190   -7.5250   -4.1400 H       1  UNL1        0.0615
      4 H          28.7920   -5.2540   -2.7470 H       1  UNL1        0.0573
      5 H          33.3600   -3.8590   -8.7280 H       1  UNL1        0.0573
      6 H          32.6450   -6.8170   -8.3190 H       1  UNL1        0.0614
      7 H          34.7700   -4.9530   -7.0320 H       1  UNL1        0.0617
      8 H          33.2730   -7.4730   -6.0960 H       1  UNL1        0.0618
      9 H          35.5820   -5.8330   -4.8110 H       1  UNL1        0.0618
     10 H          33.3760   -7.6670   -3.6960 H       1  UNL1        0.0617
     11 H          33.1680   -7.4360   -1.3280 H       1  UNL1        0.0598
     12 H          35.8320   -6.3130   -2.3520 H       1  UNL1        0.0615
     13 H          30.7030   -8.0610    3.3280 H       1  UNL1        0.0342
     14 H          40.2840   -4.1320    1.5810 H       1  UNL1        0.1186
     15 H          31.3300  -10.7580    2.0330 H       1  UNL1        0.0604
     16 H          30.5980  -10.8460    4.1260 H       1  UNL1        0.2098
     17 H          33.3220   -8.8610    3.3390 H       1  UNL1        0.0465
     18 H          33.0590   -9.2490    0.2920 H       1  UNL1        0.0607
     19 H          35.3010   -8.6070    0.8920 H       1  UNL1        0.0319
     20 H          36.8970   -4.3090   -0.6120 H       1  UNL1        0.2101
     21 H          33.9250   -5.8880    0.5010 H       1  UNL1        0.0642
     22 H          38.7330   -2.5070    3.8440 H       1  UNL1        0.2100
     23 H          36.5590   -6.3780    2.0740 H       1  UNL1        0.0937
     24 H          38.4750   -5.7110    0.6330 H       1  UNL1        0.0660
     25 H          38.5930   -4.9850    2.9990 H       1  UNL1        0.0512
     26 H          37.1370   -2.4270    2.1330 H       1  UNL1        0.0635
     27 H          31.2230   -5.0970   -1.3300 H       1  UNL1        0.2098
     28 H          36.0850   -4.7860    3.8060 H       1  UNL1        0.0620
     29 H          29.6170   -9.2940    0.1320 H       1  UNL1        0.2128
     30 H          35.1340   -2.5910    4.4800 H       1  UNL1        0.0255
     31 H          32.0510   -4.4110  -10.8590 H       1  UNL1        0.0343
     32 H          29.6660   -5.3410  -10.3800 H       1  UNL1        0.0734
     33 H          31.9500   -7.3710  -10.5600 H       1  UNL1        0.0265
     34 H          30.5030   -7.6190   -1.7840 H       1  UNL1        0.0332
     35 H          29.0940   -5.3580   -0.2860 H       1  UNL1        0.0598
     36 H          28.7780   -7.3070    1.0830 H       1  UNL1        0.0342
     37 H          29.5610   -9.1900    2.6050 H       1  UNL1        0.0342
     38 H          39.3780   -2.8780    1.1470 H       1  UNL1        0.1186
     39 H          34.7300   -7.5160    2.1290 H       1  UNL1        0.0319
     40 H          33.9280   -3.5980    3.6520 H       1  UNL1        0.0255
     41 H          31.1360   -3.7410   -9.5330 H       1  UNL1        0.0343
     42 H          31.2430   -6.4810  -11.9260 H       1  UNL1        0.0265
     43 H          28.7560   -7.6230   -1.4350 H       1  UNL1        0.0332
     44 H          29.9820   -6.2200    1.7960 H       1  UNL1        0.0342
     45 H          30.2740   -7.6460  -10.9990 H       1  UNL1        0.0265
     46 H          34.6850   -2.2680    2.7880 H       1  UNL1        0.0255
     47 H          35.5500  -11.3460    2.8720 H       1  UNL1        0.2951
     48 N          39.5900   -3.4820    1.9530 N.3     1  UNL1       -0.3229
     49 C          31.5820   -9.9250    2.7010 C.3     1  UNL1        0.0754
     50 O          31.4640  -10.4090    4.0430 O.3     1  UNL1       -0.3907
     51 C          33.0170   -9.4480    2.4610 C.3     1  UNL1        0.1084
     52 O          35.0780  -10.4990    3.0210 O.3     1  UNL1       -0.4803
     53 C          33.9210  -10.6480    2.3440 C.2     1  UNL1        0.3128
     54 O          33.7220  -11.6540    1.6830 O.2     1  UNL1       -0.2505
     55 C          33.1400   -8.6080    1.1800 C.3     1  UNL1        0.0799
     56 O          35.9350   -6.1620    0.1080 O.3     1  UNL1       -0.3413
     57 C          34.5050   -7.8870    1.1210 C.3     1  UNL1        0.0045
     58 O          37.6480   -3.9830   -0.0730 O.3     1  UNL1       -0.3851
     59 C          34.5970   -6.6840    0.1600 C.3     1  UNL1        0.0826
     60 O          37.8020   -2.7370    4.0500 O.3     1  UNL1       -0.3876
     61 C          36.4130   -5.5880    1.3280 C.3     1  UNL1        0.1875
     62 O          35.5090   -4.6050    1.8260 O.3     1  UNL1       -0.3431
     63 C          37.7810   -4.9440    0.9960 C.3     1  UNL1        0.1234
     64 O          30.2980   -6.3930   -8.7110 O.3     1  UNL1       -0.4582
     65 C          38.3420   -4.2370    2.2370 C.3     1  UNL1        0.0646
     66 O          29.2400   -4.5250   -7.8700 O.2     1  UNL1       -0.2456
     67 C          37.2940   -3.2670    2.8220 C.3     1  UNL1        0.0987
     68 O          31.1130   -5.4330   -0.4230 O.3     1  UNL1       -0.3913
     69 C          35.9650   -4.0050    3.0440 C.3     1  UNL1        0.0863
     70 O          30.5670   -9.0900    0.1460 O.3     1  UNL1       -0.3643
     71 C          34.8720   -3.0570    3.5260 C.3     1  UNL1       -0.0361
     72 O          32.1150   -7.6150    1.1160 O.3     1  UNL1       -0.3444
     73 C          34.1750   -7.0280   -1.2510 C.2     1  UNL1       -0.0555
     74 C          34.8530   -6.7840   -2.3850 C.2     1  UNL1       -0.0633
     75 C          34.2750   -7.0520   -3.6810 C.2     1  UNL1       -0.0620
     76 C          34.7260   -6.5040   -4.8200 C.2     1  UNL1       -0.0618
     77 C          34.0080   -6.6710   -6.0620 C.2     1  UNL1       -0.0618
     78 C          34.1000   -5.8070   -7.0860 C.2     1  UNL1       -0.0621
     79 C          33.1690   -5.8740   -8.1900 C.2     1  UNL1       -0.0656
     80 C          32.8300   -4.7950   -8.9110 C.2     1  UNL1       -0.0805
     81 C          31.6620   -4.6480   -9.8620 C.3     1  UNL1        0.0026
     82 C          30.5940   -5.7650   -9.9750 C.3     1  UNL1        0.1040
     83 C          31.0460   -6.8730  -10.9240 C.3     1  UNL1       -0.0274
     84 C          29.7240   -5.6350   -7.7450 C.2     1  UNL1        0.3322
     85 C          29.8740   -6.3870   -6.4800 C.2     1  UNL1        0.0225
     86 C          29.5360   -5.8640   -5.2920 C.2     1  UNL1       -0.0553
     87 C          29.7740   -6.5850   -4.0610 C.2     1  UNL1       -0.0654
     88 C          29.3640   -6.1740   -2.8510 C.2     1  UNL1       -0.0816
     89 C          29.6300   -6.9820   -1.6010 C.3     1  UNL1       -0.0081
     90 C          29.8730   -6.1290   -0.3430 C.3     1  UNL1        0.0635
     91 C          29.8040   -6.9320    0.9790 C.3     1  UNL1        0.0276
     92 C          30.7860   -8.1140    1.1570 C.3     1  UNL1        0.1723
     93 C          30.5770   -8.7870    2.5140 C.3     1  UNL1        0.0282
@<TRIPOS>BOND
     1    42    83    1
     2    45    83    1
     3    83    33    1
     4    83    82    1
     5    31    81    1
     6    32    82    1
     7    82    81    1
     8    82    64    1
     9    81    41    1
    10    81    80    1
    11    80     5    1
    12    80    79    2
    13    64    84    1
    14     6    79    1
    15    79    78    1
    16    66    84    2
    17    84    85    1
    18    78     7    1
    19    78    77    2
    20     2    85    1
    21    85    86    2
    22     8    77    1
    23    77    76    1
    24    86     1    1
    25    86    87    1
    26    76     9    1
    27    76    75    2
    28     3    87    1
    29    87    88    2
    30    10    75    1
    31    75    74    1
    32    88     4    1
    33    88    89    1
    34    74    12    1
    35    74    73    2
    36    34    89    1
    37    89    43    1
    38    89    90    1
    39    27    68    1
    40    11    73    1
    41    73    59    1
    42    20    58    1
    43    68    90    1
    44    90    35    1
    45    90    91    1
    46    58    63    1
    47    56    59    1
    48    56    61    1
    49    29    70    1
    50    70    92    1
    51    59    21    1
    52    59    57    1
    53    18    55    1
    54    24    63    1
    55    19    57    1
    56    91    36    1
    57    91    92    1
    58    91    44    1
    59    63    61    1
    60    63    65    1
    61    72    92    1
    62    72    55    1
    63    57    55    1
    64    57    39    1
    65    38    48    1
    66    92    93    1
    67    55    51    1
    68    61    62    1
    69    61    23    1
    70    14    48    1
    71    54    53    2
    72    62    69    1
    73    48    65    1
    74    15    49    1
    75    26    67    1
    76    65    67    1
    77    65    25    1
    78    53    51    1
    79    53    52    1
    80    51    49    1
    81    51    17    1
    82    93    37    1
    83    93    49    1
    84    93    13    1
    85    49    50    1
    86    46    71    1
    87    67    69    1
    88    67    60    1
    89    47    52    1
    90    69    71    1
    91    69    28    1
    92    71    40    1
    93    71    30    1
    94    22    60    1
    95    50    16    1
