@<TRIPOS>MOLECULE
88.43800
 93 95 0 0 0
SMALL
GASTEIGER

@<TRIPOS>ATOM
      1 H          32.2740  -10.8460   -0.4960 H       1  UNL1        0.0620
      2 H          31.1370  -11.6950   -3.2350 H       1  UNL1        0.0689
      3 H          29.7640   -9.8880   -2.0870 H       1  UNL1        0.0615
      4 H          30.9400   -9.2080    0.6630 H       1  UNL1        0.0573
      5 H          36.4260  -10.1240   -4.3810 H       1  UNL1        0.0573
      6 H          33.5710   -9.6510   -3.3720 H       1  UNL1        0.0614
      7 H          36.2460   -8.2130   -2.7370 H       1  UNL1        0.0617
      8 H          33.4290   -8.2780   -1.5050 H       1  UNL1        0.0618
      9 H          35.8540   -6.4430   -0.8720 H       1  UNL1        0.0618
     10 H          33.2160   -7.1870    0.5250 H       1  UNL1        0.0617
     11 H          32.9390   -6.3210    2.6380 H       1  UNL1        0.0598
     12 H          35.2210   -4.9040    1.1550 H       1  UNL1        0.0615
     13 H          28.2760   -4.8060    2.4300 H       1  UNL1        0.0342
     14 H          34.4960   -5.8650    9.7010 H       1  UNL1        0.1186
     15 H          28.6590   -4.5760    5.4490 H       1  UNL1        0.0604
     16 H          26.7650   -3.7440    4.6070 H       1  UNL1        0.2098
     17 H          29.8680   -2.7790    3.2830 H       1  UNL1        0.0465
     18 H          31.3900   -4.8580    4.9590 H       1  UNL1        0.0607
     19 H          32.6020   -2.7530    4.1450 H       1  UNL1        0.0319
     20 H          35.4900   -6.2970    5.8210 H       1  UNL1        0.2101
     21 H          34.5780   -3.8140    3.3040 H       1  UNL1        0.0642
     22 H          36.1680   -3.1700    9.8780 H       1  UNL1        0.2100
     23 H          33.2970   -3.6930    6.0820 H       1  UNL1        0.0937
     24 H          33.6020   -5.8560    7.2720 H       1  UNL1        0.0660
     25 H          33.9530   -3.8250    8.6440 H       1  UNL1        0.0512
     26 H          36.8970   -3.9390    7.7870 H       1  UNL1        0.0635
     27 H          30.3300   -6.0460   -0.5960 H       1  UNL1        0.2098
     28 H          34.7010   -1.9500    6.9530 H       1  UNL1        0.0620
     29 H          30.6180   -7.3850    4.5350 H       1  UNL1        0.2128
     30 H          36.9570   -0.9170    7.1150 H       1  UNL1        0.0255
     31 H          35.5500  -12.2180   -5.1110 H       1  UNL1        0.0343
     32 H          32.6960  -11.1930   -4.6660 H       1  UNL1        0.0734
     33 H          33.6460  -13.7970   -5.9620 H       1  UNL1        0.0265
     34 H          28.2290   -8.7330    0.3690 H       1  UNL1        0.0332
     35 H          28.4860   -6.2890    0.7680 H       1  UNL1        0.0598
     36 H          30.5030   -7.9060    2.3990 H       1  UNL1        0.0342
     37 H          27.5740   -5.8480    3.6650 H       1  UNL1        0.0342
     38 H          35.9880   -5.8570    9.1040 H       1  UNL1        0.1186
     39 H          32.2600   -3.2570    2.4960 H       1  UNL1        0.0319
     40 H          36.4300   -1.0740    5.4260 H       1  UNL1        0.0255
     41 H          34.7800  -11.0490   -6.1870 H       1  UNL1        0.0343
     42 H          32.8080  -12.4660   -6.7960 H       1  UNL1        0.0265
     43 H          28.8100   -7.8360   -1.0400 H       1  UNL1        0.0332
     44 H          28.7670   -7.9900    2.6530 H       1  UNL1        0.0342
     45 H          31.9860  -13.4090   -5.5340 H       1  UNL1        0.0265
     46 H          37.6160   -2.1990    6.0700 H       1  UNL1        0.0255
     47 H          30.2360   -0.7460    5.9550 H       1  UNL1        0.2951
     48 N          35.2600   -5.2280    9.4670 N.3     1  UNL1       -0.3229
     49 C          28.6710   -4.1590    4.4340 C.3     1  UNL1        0.0754
     50 O          27.5640   -3.2570    4.3390 O.3     1  UNL1       -0.3907
     51 C          29.9770   -3.3990    4.1820 C.3     1  UNL1        0.1084
     52 O          30.0670   -1.2040    5.1060 O.3     1  UNL1       -0.4803
     53 C          30.2560   -2.5100    5.3670 C.2     1  UNL1        0.3128
     54 O          30.6570   -2.8700    6.4640 O.2     1  UNL1       -0.2505
     55 C          31.1590   -4.3680    4.0050 C.3     1  UNL1        0.0799
     56 O          33.9570   -5.1500    4.7570 O.3     1  UNL1       -0.3413
     57 C          32.4300   -3.6330    3.5140 C.3     1  UNL1        0.0045
     58 O          35.5670   -6.1180    6.7810 O.3     1  UNL1       -0.3851
     59 C          33.7290   -4.4760    3.5170 C.3     1  UNL1        0.0826
     60 O          36.1780   -2.5510    9.1170 O.3     1  UNL1       -0.3876
     61 C          34.1920   -4.2890    5.8760 C.3     1  UNL1        0.1875
     62 O          35.2980   -3.4250    5.6280 O.3     1  UNL1       -0.3431
     63 C          34.4750   -5.2210    7.0790 C.3     1  UNL1        0.1234
     64 O          33.5880  -12.7690   -3.5470 O.3     1  UNL1       -0.4582
     65 C          34.8350   -4.3900    8.3160 C.3     1  UNL1        0.0646
     66 O          33.3840  -13.0300   -1.3210 O.2     1  UNL1       -0.2456
     67 C          35.9640   -3.3940    7.9810 C.3     1  UNL1        0.0987
     68 O          30.4810   -6.2340    0.3460 O.3     1  UNL1       -0.3913
     69 C          35.5840   -2.5690    6.7420 C.3     1  UNL1        0.0863
     70 O          29.8720   -6.7680    4.6300 O.3     1  UNL1       -0.3643
     71 C          36.7130   -1.6330    6.3250 C.3     1  UNL1       -0.0361
     72 O          30.8360   -5.3780    3.0460 O.3     1  UNL1       -0.3444
     73 C          33.6890   -5.5510    2.4710 C.2     1  UNL1       -0.0555
     74 C          34.4390   -5.6290    1.3600 C.2     1  UNL1       -0.0633
     75 C          34.1520   -6.6450    0.3750 C.2     1  UNL1       -0.0620
     76 C          34.9060   -6.9410   -0.6930 C.2     1  UNL1       -0.0618
     77 C          34.4580   -7.9440   -1.6330 C.2     1  UNL1       -0.0618
     78 C          35.2040   -8.4930   -2.6030 C.2     1  UNL1       -0.0621
     79 C          34.6430   -9.5150   -3.4580 C.2     1  UNL1       -0.0656
     80 C          35.3510  -10.2810   -4.2990 C.2     1  UNL1       -0.0805
     81 C          34.8090  -11.4090   -5.1510 C.3     1  UNL1        0.0026
     82 C          33.4330  -11.9940   -4.7650 C.3     1  UNL1        0.1040
     83 C          32.9420  -12.9670   -5.8330 C.3     1  UNL1       -0.0274
     84 C          32.9830  -12.5220   -2.3620 C.2     1  UNL1        0.3322
     85 C          31.7990  -11.6440   -2.3830 C.2     1  UNL1        0.0225
     86 C          31.5760  -10.8360   -1.3350 C.2     1  UNL1       -0.0553
     87 C          30.4560   -9.9250   -1.2490 C.2     1  UNL1       -0.0654
     88 C          30.2470   -9.1490   -0.1730 C.2     1  UNL1       -0.0816
     89 C          29.0890   -8.1890   -0.0380 C.3     1  UNL1       -0.0081
     90 C          29.3580   -6.9470    0.8500 C.3     1  UNL1        0.0635
     91 C          29.5760   -7.3230    2.3260 C.3     1  UNL1        0.0276
     92 C          29.7010   -6.1690    3.3450 C.3     1  UNL1        0.1723
     93 C          28.4700   -5.2720    3.4030 C.3     1  UNL1        0.0282
@<TRIPOS>BOND
     1    42    83    1
     2    41    81    1
     3    33    83    1
     4    83    45    1
     5    83    82    1
     6    81    31    1
     7    81    82    1
     8    81    80    1
     9    82    32    1
    10    82    64    1
    11     5    80    1
    12    80    79    2
    13    64    84    1
    14    79     6    1
    15    79    78    1
    16     2    85    1
    17     7    78    1
    18    78    77    2
    19    85    84    1
    20    85    86    2
    21    84    66    2
    22     3    87    1
    23    77     8    1
    24    77    76    1
    25    86    87    1
    26    86     1    1
    27    87    88    2
    28    43    89    1
    29     9    76    1
    30    76    75    2
    31    27    68    1
    32    88    89    1
    33    88     4    1
    34    89    34    1
    35    89    90    1
    36    68    90    1
    37    75    10    1
    38    75    74    1
    39    35    90    1
    40    90    91    1
    41    12    74    1
    42    74    73    2
    43    91    36    1
    44    91    44    1
    45    91    92    1
    46    13    93    1
    47    73    11    1
    48    73    59    1
    49    39    57    1
    50    72    92    1
    51    72    55    1
    52    17    51    1
    53    21    59    1
    54    92    93    1
    55    92    70    1
    56    93    37    1
    57    93    49    1
    58    57    59    1
    59    57    55    1
    60    57    19    1
    61    59    56    1
    62    55    51    1
    63    55    18    1
    64    51    49    1
    65    51    53    1
    66    50    49    1
    67    50    16    1
    68    49    15    1
    69    29    70    1
    70    56    61    1
    71    52    53    1
    72    52    47    1
    73    53    54    2
    74    40    71    1
    75    62    61    1
    76    62    69    1
    77    20    58    1
    78    61    23    1
    79    61    63    1
    80    46    71    1
    81    71    69    1
    82    71    30    1
    83    69    28    1
    84    69    67    1
    85    58    63    1
    86    63    24    1
    87    63    65    1
    88    26    67    1
    89    67    65    1
    90    67    60    1
    91    65    25    1
    92    65    48    1
    93    38    48    1
    94    60    22    1
    95    48    14    1
