@<TRIPOS>MOLECULE
81.37765
 93 95 0 0 0
SMALL
GASTEIGER

@<TRIPOS>ATOM
      1 H          29.2640   -6.3830   -4.6940 H       1  UNL1        0.0620
      2 H          32.1480   -5.3260   -4.3630 H       1  UNL1        0.0689
      3 H          31.1050   -5.8540   -2.2460 H       1  UNL1        0.0615
      4 H          28.1080   -6.5050   -2.4400 H       1  UNL1        0.0573
      5 H          33.4520   -9.0270   -4.7340 H       1  UNL1        0.0573
      6 H          34.9740   -6.4500   -4.0420 H       1  UNL1        0.0614
      7 H          33.3400   -8.4490   -2.2930 H       1  UNL1        0.0617
      8 H          34.7000   -5.7410   -1.7730 H       1  UNL1        0.0618
      9 H          33.1000   -7.6490    0.1000 H       1  UNL1        0.0618
     10 H          34.3360   -4.8510    0.3990 H       1  UNL1        0.0617
     11 H          33.9670   -3.8100    2.4790 H       1  UNL1        0.0598
     12 H          32.8160   -6.6540    2.4390 H       1  UNL1        0.0615
     13 H          31.4870   -2.1860    0.6470 H       1  UNL1        0.0342
     14 H          34.6840   -8.7380    8.8490 H       1  UNL1        0.1186
     15 H          29.7580   -0.7830    2.7500 H       1  UNL1        0.0604
     16 H          31.0040    0.5450    1.4750 H       1  UNL1        0.2098
     17 H          32.4660   -2.1140    3.1340 H       1  UNL1        0.0465
     18 H          29.7520   -3.2270    4.0800 H       1  UNL1        0.0607
     19 H          31.0150   -5.3570    4.4200 H       1  UNL1        0.0319
     20 H          35.5020   -6.4200    5.6670 H       1  UNL1        0.2101
     21 H          33.5290   -3.6630    4.6920 H       1  UNL1        0.0642
     22 H          34.7510   -6.2150   10.7940 H       1  UNL1        0.2100
     23 H          32.3100   -5.7410    6.6960 H       1  UNL1        0.0937
     24 H          33.7520   -7.7640    6.6400 H       1  UNL1        0.0660
     25 H          33.1060   -6.9760    8.8950 H       1  UNL1        0.0512
     26 H          35.6350   -5.2410    8.8570 H       1  UNL1        0.0635
     27 H          26.9890   -5.9520    0.4500 H       1  UNL1        0.2098
     28 H          32.6850   -4.3880    8.6530 H       1  UNL1        0.0620
     29 H          27.8530   -3.6010    1.5090 H       1  UNL1        0.2128
     30 H          34.1060   -2.7440    9.8610 H       1  UNL1        0.0255
     31 H          34.9160   -8.7000   -6.7740 H       1  UNL1        0.0343
     32 H          33.6470   -6.9720   -8.1420 H       1  UNL1        0.0734
     33 H          31.7340   -8.7920   -6.5690 H       1  UNL1        0.0265
     34 H          30.2210   -6.9690   -0.2950 H       1  UNL1        0.0332
     35 H          29.0930   -5.8180    1.4560 H       1  UNL1        0.0598
     36 H          29.2110   -3.6170   -0.6540 H       1  UNL1        0.0342
     37 H          29.9470   -1.3740    0.3780 H       1  UNL1        0.0342
     38 H          35.9190   -7.7150    8.7440 H       1  UNL1        0.1186
     39 H          31.3290   -4.0680    5.5570 H       1  UNL1        0.0319
     40 H          33.6260   -2.1410    8.2600 H       1  UNL1        0.0255
     41 H          35.2070   -7.0260   -6.3190 H       1  UNL1        0.0343
     42 H          32.8200   -9.3650   -7.8550 H       1  UNL1        0.0265
     43 H          28.5400   -7.4580   -0.2860 H       1  UNL1        0.0332
     44 H          30.7090   -4.4440   -0.1460 H       1  UNL1        0.0342
     45 H          31.5490   -8.2040   -8.2230 H       1  UNL1        0.0265
     46 H          35.2580   -2.7460    8.5040 H       1  UNL1        0.0255
     47 H          32.4540   -0.6590    6.1510 H       1  UNL1        0.2951
     48 N          34.9910   -7.8200    9.1750 N.3     1  UNL1       -0.3229
     49 C          30.7160   -1.1660    2.3780 C.3     1  UNL1        0.0754
     50 O          31.5310   -0.0330    2.0560 O.3     1  UNL1       -0.3907
     51 C          31.4220   -2.0050    3.4460 C.3     1  UNL1        0.1084
     52 O          32.6060   -1.1570    5.3210 O.3     1  UNL1       -0.4803
     53 C          31.3860   -1.2740    4.7620 C.2     1  UNL1        0.3128
     54 O          30.3970   -0.8640    5.3460 O.2     1  UNL1       -0.2505
     55 C          30.7390   -3.3660    3.6180 C.3     1  UNL1        0.0799
     56 O          33.5190   -5.6910    5.0140 O.3     1  UNL1       -0.3413
     57 C          31.4920   -4.3710    4.5150 C.3     1  UNL1        0.0045
     58 O          35.5390   -6.7800    6.5780 O.3     1  UNL1       -0.3851
     59 C          33.0120   -4.5490    4.3050 C.3     1  UNL1        0.0826
     60 O          34.3890   -5.3580   10.4840 O.3     1  UNL1       -0.3876
     61 C          33.3700   -5.6280    6.4380 C.3     1  UNL1        0.1875
     62 O          33.8640   -4.3930    6.9520 O.3     1  UNL1       -0.3431
     63 C          34.1660   -6.8220    7.0180 C.3     1  UNL1        0.1234
     64 O          32.7080   -6.1900   -6.4900 O.3     1  UNL1       -0.4582
     65 C          34.1300   -6.7830    8.5520 C.3     1  UNL1        0.0646
     66 O          30.4690   -6.3530   -7.0280 O.2     1  UNL1       -0.2456
     67 C          34.5690   -5.3960    9.0660 C.3     1  UNL1        0.0987
     68 O          27.4930   -5.1190    0.4150 O.3     1  UNL1       -0.3913
     69 C          33.7440   -4.2990    8.3760 C.3     1  UNL1        0.0863
     70 O          28.4820   -2.9620    1.9030 O.3     1  UNL1       -0.3643
     71 C          34.2110   -2.9060    8.7840 C.3     1  UNL1       -0.0361
     72 O          30.5210   -4.0250    2.3690 O.3     1  UNL1       -0.3444
     73 C          33.4640   -4.6930    2.8720 C.2     1  UNL1       -0.0555
     74 C          33.3170   -5.7620    2.0710 C.2     1  UNL1       -0.0633
     75 C          33.8040   -5.7500    0.7070 C.2     1  UNL1       -0.0620
     76 C          33.6350   -6.7450   -0.1790 C.2     1  UNL1       -0.0618
     77 C          34.1340   -6.6410   -1.5360 C.2     1  UNL1       -0.0618
     78 C          33.9170   -7.5510   -2.5000 C.2     1  UNL1       -0.0621
     79 C          34.3810   -7.3450   -3.8560 C.2     1  UNL1       -0.0656
     80 C          34.0610   -8.1400   -4.8910 C.2     1  UNL1       -0.0805
     81 C          34.4470   -7.8190   -6.3220 C.3     1  UNL1        0.0026
     82 C          33.2520   -7.3390   -7.1870 C.3     1  UNL1        0.1040
     83 C          32.2860   -8.4920   -7.4660 C.3     1  UNL1       -0.0274
     84 C          31.3800   -6.0510   -6.2800 C.2     1  UNL1        0.3322
     85 C          31.2490   -5.6740   -4.8580 C.2     1  UNL1        0.0225
     86 C          30.1380   -5.9910   -4.1770 C.2     1  UNL1       -0.0553
     87 C          30.1430   -6.0110   -2.7330 C.2     1  UNL1       -0.0654
     88 C          29.0800   -6.3330   -1.9830 C.2     1  UNL1       -0.0816
     89 C          29.2050   -6.6140   -0.5110 C.3     1  UNL1       -0.0081
     90 C          28.8870   -5.4550    0.4420 C.3     1  UNL1        0.0635
     91 C          29.6910   -4.1750    0.1600 C.3     1  UNL1        0.0276
     92 C          29.7760   -3.2810    1.4100 C.3     1  UNL1        0.1723
     93 C          30.5080   -1.9790    1.1010 C.3     1  UNL1        0.0282
@<TRIPOS>BOND
     1    45    83    1
     2    32    82    1
     3    42    83    1
     4    83    82    1
     5    83    33    1
     6    82    64    1
     7    82    81    1
     8    66    84    2
     9    31    81    1
    10    64    84    1
    11    81    41    1
    12    81    80    1
    13    84    85    1
    14    80     5    1
    15    80    79    2
    16    85     2    1
    17    85    86    2
    18     1    86    1
    19    86    87    1
    20     6    79    1
    21    79    78    1
    22    87     3    1
    23    87    88    2
    24    78     7    1
    25    78    77    2
    26     4    88    1
    27    88    89    1
    28     8    77    1
    29    77    76    1
    30    36    91    1
    31    89    34    1
    32    89    43    1
    33    89    90    1
    34    76     9    1
    35    76    75    2
    36    44    91    1
    37    91    90    1
    38    91    92    1
    39    37    93    1
    40    10    75    1
    41    68    90    1
    42    68    27    1
    43    90    35    1
    44    13    93    1
    45    75    74    1
    46    93    92    1
    47    93    49    1
    48    92    70    1
    49    92    72    1
    50    16    50    1
    51    29    70    1
    52    50    49    1
    53    74    12    1
    54    74    73    2
    55    72    55    1
    56    49    15    1
    57    49    51    1
    58    11    73    1
    59    73    59    1
    60    17    51    1
    61    51    55    1
    62    51    53    1
    63    55    18    1
    64    55    57    1
    65    59    57    1
    66    59    21    1
    67    59    56    1
    68    19    57    1
    69    57    39    1
    70    53    52    1
    71    53    54    2
    72    56    61    1
    73    52    47    1
    74    20    58    1
    75    61    23    1
    76    61    62    1
    77    61    63    1
    78    58    63    1
    79    24    63    1
    80    62    69    1
    81    63    65    1
    82    40    71    1
    83    69    28    1
    84    69    71    1
    85    69    67    1
    86    46    71    1
    87    65    25    1
    88    65    67    1
    89    65    48    1
    90    38    48    1
    91    71    30    1
    92    14    48    1
    93    26    67    1
    94    67    60    1
    95    60    22    1
