@<TRIPOS>MOLECULE
78.16003
 93 95 0 0 0
SMALL
GASTEIGER

@<TRIPOS>ATOM
      1 H          29.6570   -5.6280   -5.2400 H       1  UNL1        0.0620
      2 H          29.2930   -8.5400   -6.2000 H       1  UNL1        0.0689
      3 H          29.1470   -8.3000   -3.7220 H       1  UNL1        0.0615
      4 H          29.1850   -5.3610   -2.8210 H       1  UNL1        0.0573
      5 H          31.9240   -9.2350   -6.6500 H       1  UNL1        0.0573
      6 H          34.7100   -7.9730   -6.9490 H       1  UNL1        0.0614
      7 H          32.7120   -8.4450   -4.6220 H       1  UNL1        0.0617
      8 H          35.7050   -7.7530   -4.5370 H       1  UNL1        0.0618
      9 H          33.3390   -7.6090   -2.5420 H       1  UNL1        0.0618
     10 H          36.3600   -7.6930   -1.9980 H       1  UNL1        0.0617
     11 H          36.5680   -7.9480    0.5800 H       1  UNL1        0.0598
     12 H          33.8740   -6.8300   -0.3580 H       1  UNL1        0.0615
     13 H          30.0750   -8.8290    3.0480 H       1  UNL1        0.0342
     14 H          39.0670   -4.6510    6.3440 H       1  UNL1        0.1186
     15 H          31.3460  -11.1190    1.4700 H       1  UNL1        0.0604
     16 H          29.7950  -11.7160    2.9300 H       1  UNL1        0.2098
     17 H          32.4530   -9.7120    3.9420 H       1  UNL1        0.0465
     18 H          33.5230   -9.3820    1.0730 H       1  UNL1        0.0607
     19 H          35.2310   -9.1210    2.8800 H       1  UNL1        0.0319
     20 H          37.4990   -4.8380    2.6400 H       1  UNL1        0.2101
     21 H          34.3320   -6.3350    1.9350 H       1  UNL1        0.0642
     22 H          36.5490   -2.9920    7.3740 H       1  UNL1        0.2100
     23 H          35.6580   -6.8540    4.6940 H       1  UNL1        0.0937
     24 H          38.0580   -6.2190    4.5560 H       1  UNL1        0.0660
     25 H          36.8640   -5.4760    6.5930 H       1  UNL1        0.0512
     26 H          36.1590   -2.9100    5.0660 H       1  UNL1        0.0635
     27 H          31.4670   -5.9090   -1.7740 H       1  UNL1        0.2098
     28 H          34.3330   -5.2470    5.8880 H       1  UNL1        0.0620
     29 H          31.6920   -8.2240   -0.6130 H       1  UNL1        0.2128
     30 H          33.1920   -3.0390    5.9330 H       1  UNL1        0.0255
     31 H          32.3310   -9.8110   -8.9930 H       1  UNL1        0.0343
     32 H          31.9590   -6.7690   -8.9600 H       1  UNL1        0.0734
     33 H          30.7130   -8.9450  -10.7250 H       1  UNL1        0.0265
     34 H          29.2170   -8.0950   -1.3630 H       1  UNL1        0.0332
     35 H          29.9430   -5.3170   -0.2780 H       1  UNL1        0.0598
     36 H          29.1300   -7.2540    1.2730 H       1  UNL1        0.0342
     37 H          29.4080   -9.6520    1.6400 H       1  UNL1        0.0342
     38 H          38.5690   -3.3930    5.4800 H       1  UNL1        0.1186
     39 H          34.1520   -8.0440    3.7400 H       1  UNL1        0.0319
     40 H          32.6270   -4.0380    4.5770 H       1  UNL1        0.0255
     41 H          33.5770   -8.5740   -9.1750 H       1  UNL1        0.0343
     42 H          32.0110   -7.8320  -11.2200 H       1  UNL1        0.0265
     43 H          28.0940   -6.8110   -0.9110 H       1  UNL1        0.0332
     44 H          30.5110   -6.2840    1.7140 H       1  UNL1        0.0342
     45 H          30.3870   -7.2210  -10.8330 H       1  UNL1        0.0265
     46 H          33.7480   -2.7200    4.2720 H       1  UNL1        0.0255
     47 H          34.7000  -12.2100    3.9940 H       1  UNL1        0.2951
     48 N          38.2920   -3.9910    6.2690 N.3     1  UNL1       -0.3229
     49 C          31.2330  -10.5110    2.3760 C.3     1  UNL1        0.0754
     50 O          30.5790  -11.3260    3.3560 O.3     1  UNL1       -0.3907
     51 C          32.5950  -10.0710    2.9140 C.3     1  UNL1        0.1084
     52 O          34.1680  -11.3950    4.1110 O.3     1  UNL1       -0.4803
     53 C          33.5170  -11.2620    2.9380 C.2     1  UNL1        0.3128
     54 O          33.7430  -12.0350    2.0220 O.2     1  UNL1       -0.2505
     55 C          33.2150   -8.9690    2.0420 C.3     1  UNL1        0.0799
     56 O          36.2230   -6.6370    2.7110 O.3     1  UNL1       -0.3413
     57 C          34.4560   -8.3580    2.7340 C.3     1  UNL1        0.0045
     58 O          37.7840   -4.4880    3.5100 O.3     1  UNL1       -0.3851
     59 C          35.0710   -7.1410    2.0180 C.3     1  UNL1        0.0826
     60 O          35.6550   -3.2100    7.0330 O.3     1  UNL1       -0.3876
     61 C          35.9570   -6.0640    3.9950 C.3     1  UNL1        0.1875
     62 O          34.9380   -5.0710    3.9150 O.3     1  UNL1       -0.3431
     63 C          37.2910   -5.4410    4.4750 C.3     1  UNL1        0.1234
     64 O          30.3770   -7.9880   -8.2770 O.3     1  UNL1       -0.4582
     65 C          37.0850   -4.7300    5.8190 C.3     1  UNL1        0.0646
     66 O          30.2210   -5.7500   -7.7370 O.2     1  UNL1       -0.2456
     67 C          35.9010   -3.7450    5.7300 C.3     1  UNL1        0.0987
     68 O          31.4570   -6.4940   -0.9920 O.3     1  UNL1       -0.3913
     69 C          34.6590   -4.4680    5.1850 C.3     1  UNL1        0.0863
     70 O          31.3300   -8.9420   -0.0500 O.3     1  UNL1       -0.3643
     71 C          33.4910   -3.5070    4.9900 C.3     1  UNL1       -0.0361
     72 O          32.2750   -7.9060    1.8140 O.3     1  UNL1       -0.3444
     73 C          35.5840   -7.4900    0.6430 C.2     1  UNL1       -0.0555
     74 C          34.8670   -7.2640   -0.4660 C.2     1  UNL1       -0.0633
     75 C          35.2970   -7.5700   -1.8090 C.2     1  UNL1       -0.0620
     76 C          34.3950   -7.6940   -2.7920 C.2     1  UNL1       -0.0618
     77 C          34.6900   -7.9200   -4.1880 C.2     1  UNL1       -0.0618
     78 C          33.7080   -8.2690   -5.0290 C.2     1  UNL1       -0.0621
     79 C          33.8210   -8.3690   -6.4660 C.2     1  UNL1       -0.0656
     80 C          32.7860   -8.8320   -7.1800 C.2     1  UNL1       -0.0805
     81 C          32.6280   -8.8040   -8.6760 C.3     1  UNL1        0.0026
     82 C          31.5490   -7.7770   -9.0970 C.3     1  UNL1        0.1040
     83 C          31.1510   -7.9550  -10.5550 C.3     1  UNL1       -0.0274
     84 C          30.0060   -6.9280   -7.5110 C.2     1  UNL1        0.3322
     85 C          29.4810   -7.4750   -6.2390 C.2     1  UNL1        0.0225
     86 C          29.4260   -6.6900   -5.1530 C.2     1  UNL1       -0.0553
     87 C          29.1990   -7.2170   -3.8250 C.2     1  UNL1       -0.0654
     88 C          29.1450   -6.4450   -2.7290 C.2     1  UNL1       -0.0816
     89 C          29.0900   -7.0070   -1.3270 C.3     1  UNL1       -0.0081
     90 C          30.1610   -6.3850   -0.4020 C.3     1  UNL1        0.0635
     91 C          30.1700   -7.0410    0.9940 C.3     1  UNL1        0.0276
     92 C          31.0540   -8.3040    1.1830 C.3     1  UNL1        0.1723
     93 C          30.3440   -9.3030    2.0940 C.3     1  UNL1        0.0282
@<TRIPOS>BOND
     1    42    83    1
     2    45    83    1
     3    33    83    1
     4    83    82    1
     5    41    81    1
     6    82    32    1
     7    82    81    1
     8    82    64    1
     9    31    81    1
    10    81    80    1
    11    64    84    1
    12    66    84    2
    13    84    85    1
    14    80     5    1
    15    80    79    2
    16     6    79    1
    17    79    78    1
    18    85     2    1
    19    85    86    2
    20     1    86    1
    21    86    87    1
    22    78     7    1
    23    78    77    2
    24     8    77    1
    25    77    76    1
    26    87     3    1
    27    87    88    2
    28     4    88    1
    29    76     9    1
    30    76    75    2
    31    88    89    1
    32    10    75    1
    33    75    74    1
    34    27    68    1
    35    34    89    1
    36    89    43    1
    37    89    90    1
    38    68    90    1
    39    29    70    1
    40    74    12    1
    41    74    73    2
    42    90    35    1
    43    90    91    1
    44    70    92    1
    45    11    73    1
    46    73    59    1
    47    91    92    1
    48    91    36    1
    49    91    44    1
    50    18    55    1
    51    92    72    1
    52    92    93    1
    53    15    49    1
    54    37    93    1
    55    72    55    1
    56    21    59    1
    57    59    56    1
    58    59    57    1
    59    54    53    2
    60    55    57    1
    61    55    51    1
    62    93    49    1
    63    93    13    1
    64    49    51    1
    65    49    50    1
    66    20    58    1
    67    56    61    1
    68    57    19    1
    69    57    39    1
    70    51    53    1
    71    51    17    1
    72    16    50    1
    73    53    52    1
    74    58    63    1
    75    62    61    1
    76    62    69    1
    77    47    52    1
    78    61    63    1
    79    61    23    1
    80    46    71    1
    81    63    24    1
    82    63    65    1
    83    40    71    1
    84    71    69    1
    85    71    30    1
    86    26    67    1
    87    69    67    1
    88    69    28    1
    89    38    48    1
    90    67    65    1
    91    67    60    1
    92    65    48    1
    93    65    25    1
    94    48    14    1
    95    60    22    1
