@<TRIPOS>MOLECULE
89.76720
 93 95 0 0 0
SMALL
GASTEIGER

@<TRIPOS>ATOM
      1 H          33.2310   -9.5420   -1.3100 H       1  UNL1        0.0620
      2 H          31.1230  -11.3080   -2.6570 H       1  UNL1        0.0689
      3 H          30.1850   -9.1560   -1.8720 H       1  UNL1        0.0615
      4 H          32.3880   -7.3500   -0.7170 H       1  UNL1        0.0573
      5 H          29.4080  -13.3260   -1.8390 H       1  UNL1        0.0573
      6 H          31.6190  -13.5670    0.2840 H       1  UNL1        0.0614
      7 H          28.8980  -12.0510    0.2010 H       1  UNL1        0.0617
      8 H          31.1900  -12.1910    2.2470 H       1  UNL1        0.0618
      9 H          28.4820  -10.6570    2.1750 H       1  UNL1        0.0618
     10 H          30.7630  -10.8260    4.2310 H       1  UNL1        0.0617
     11 H          30.3020   -9.4910    6.2260 H       1  UNL1        0.0598
     12 H          28.0810   -9.2500    4.1230 H       1  UNL1        0.0615
     13 H          31.6990   -5.9760    3.5660 H       1  UNL1        0.0342
     14 H          24.1270  -10.5010   10.5740 H       1  UNL1        0.1186
     15 H          30.1510   -3.6230    4.7390 H       1  UNL1        0.0604
     16 H          32.4410   -3.6370    4.7770 H       1  UNL1        0.2098
     17 H          30.6580   -6.3630    5.9990 H       1  UNL1        0.0465
     18 H          28.0480   -5.1900    4.8730 H       1  UNL1        0.0607
     19 H          27.0770   -7.4520    5.2670 H       1  UNL1        0.0319
     20 H          27.7460  -10.6340    8.8390 H       1  UNL1        0.2101
     21 H          29.3070   -7.7430    7.3520 H       1  UNL1        0.0642
     22 H          25.1180   -8.2960   12.6460 H       1  UNL1        0.2100
     23 H          26.2790   -7.6490    8.0420 H       1  UNL1        0.0937
     24 H          25.4750   -9.9610    8.4370 H       1  UNL1        0.0660
     25 H          24.6870   -8.2620   10.0560 H       1  UNL1        0.0512
     26 H          27.1790   -8.9170   11.7220 H       1  UNL1        0.0635
     27 H          31.8630   -4.6790   -0.2300 H       1  UNL1        0.2098
     28 H          26.5370   -6.3880   10.0890 H       1  UNL1        0.0620
     29 H          27.9780   -5.1290    2.1780 H       1  UNL1        0.2128
     30 H          27.8510   -5.9390   12.1560 H       1  UNL1        0.0255
     31 H          30.6020  -15.3670   -2.5760 H       1  UNL1        0.0343
     32 H          32.3450  -14.7130   -4.0000 H       1  UNL1        0.0734
     33 H          30.2590  -12.5180   -4.0300 H       1  UNL1        0.0265
     34 H          29.3300   -6.9930   -1.1070 H       1  UNL1        0.0332
     35 H          29.6440   -4.9200    0.2380 H       1  UNL1        0.0598
     36 H          30.6680   -7.3540    1.8120 H       1  UNL1        0.0342
     37 H          31.3730   -4.4130    2.8230 H       1  UNL1        0.0342
     38 H          25.5140  -10.7370   11.3500 H       1  UNL1        0.1186
     39 H          27.3310   -6.4310    6.6520 H       1  UNL1        0.0319
     40 H          28.8320   -5.7240   10.6920 H       1  UNL1        0.0255
     41 H          32.0110  -14.9710   -1.6020 H       1  UNL1        0.0343
     42 H          30.3710  -13.9800   -4.9850 H       1  UNL1        0.0265
     43 H          30.5210   -5.8750   -1.7730 H       1  UNL1        0.0332
     44 H          28.9940   -7.1210    1.3380 H       1  UNL1        0.0342
     45 H          31.5480  -12.6700   -5.2230 H       1  UNL1        0.0265
     46 H          29.0360   -7.1740   11.6630 H       1  UNL1        0.0255
     47 H          30.0150   -4.6970    8.8520 H       1  UNL1        0.2951
     48 N          24.7990  -10.0190   11.1740 N.3     1  UNL1       -0.3229
     49 C          30.7140   -4.5590    4.8410 C.3     1  UNL1        0.0754
     50 O          31.9860   -4.2250    5.4050 O.3     1  UNL1       -0.3907
     51 C          29.9840   -5.5300    5.7660 C.3     1  UNL1        0.1084
     52 O          30.3140   -5.2520    8.1040 O.3     1  UNL1       -0.4803
     53 C          29.6190   -4.8120    7.0380 C.2     1  UNL1        0.3128
     54 O          28.7660   -3.9490    7.1650 O.2     1  UNL1       -0.2505
     55 C          28.7150   -6.0390    5.0760 C.3     1  UNL1        0.0799
     56 O          27.6840   -9.0130    7.3570 O.3     1  UNL1       -0.3413
     57 C          27.8650   -7.0270    5.9030 C.3     1  UNL1        0.0045
     58 O          27.0700  -10.5830    9.5460 O.3     1  UNL1       -0.3851
     59 C          28.5970   -8.1720    6.6360 C.3     1  UNL1        0.0826
     60 O          25.7380   -7.5970   12.3470 O.3     1  UNL1       -0.3876
     61 C          26.9840   -8.3890    8.4370 C.3     1  UNL1        0.1875
     62 O          27.8920   -7.7620    9.3400 O.3     1  UNL1       -0.3431
     63 C          26.1900   -9.5160    9.1400 C.3     1  UNL1        0.1234
     64 O          33.0660  -13.0870   -3.1040 O.3     1  UNL1       -0.4582
     65 C          25.4700   -8.9610   10.3750 C.3     1  UNL1        0.0646
     66 O          34.3470  -11.6180   -2.0210 O.2     1  UNL1       -0.2456
     67 C          26.4660   -8.2090   11.2790 C.3     1  UNL1        0.0987
     68 O          31.6370   -5.1940    0.5650 O.3     1  UNL1       -0.3913
     69 C          27.2290   -7.1580   10.4570 C.3     1  UNL1        0.0863
     70 O          28.7500   -4.7030    2.5870 O.3     1  UNL1       -0.3643
     71 C          28.2910   -6.4580   11.2980 C.3     1  UNL1       -0.0361
     72 O          29.0280   -6.6400    3.8110 O.3     1  UNL1       -0.3444
     73 C          29.3780   -9.1320    5.7770 C.2     1  UNL1       -0.0555
     74 C          29.0160   -9.5840    4.5660 C.2     1  UNL1       -0.0633
     75 C          29.8150  -10.5110    3.8000 C.2     1  UNL1       -0.0620
     76 C          29.4310  -10.9750    2.6020 C.2     1  UNL1       -0.0618
     77 C          30.2330  -11.8920    1.8250 C.2     1  UNL1       -0.0618
     78 C          29.8510  -12.3560    0.6260 C.2     1  UNL1       -0.0621
     79 C          30.6760  -13.2450   -0.1570 C.2     1  UNL1       -0.0656
     80 C          30.3490  -13.6430   -1.3960 C.2     1  UNL1       -0.0805
     81 C          31.2260  -14.5330   -2.2310 C.3     1  UNL1        0.0026
     82 C          31.8910  -13.8740   -3.4530 C.3     1  UNL1        0.1040
     83 C          30.9680  -13.2180   -4.4730 C.3     1  UNL1       -0.0274
     84 C          33.2340  -11.9280   -2.4340 C.2     1  UNL1        0.3322
     85 C          32.0860  -11.0220   -2.2810 C.2     1  UNL1        0.0225
     86 C          32.2480   -9.8300   -1.6840 C.2     1  UNL1       -0.0553
     87 C          31.1780   -8.8690   -1.5320 C.2     1  UNL1       -0.0654
     88 C          31.3860   -7.6400   -1.0350 C.2     1  UNL1       -0.0816
     89 C          30.3290   -6.5700   -0.9460 C.3     1  UNL1       -0.0081
     90 C          30.3410   -5.7570    0.3660 C.3     1  UNL1        0.0635
     91 C          29.9180   -6.5830    1.5890 C.3     1  UNL1        0.0276
     92 C          29.6570   -5.7600    2.8730 C.3     1  UNL1        0.1723
     93 C          30.9430   -5.1860    3.4680 C.3     1  UNL1        0.0282
@<TRIPOS>BOND
     1    45    83    1
     2    42    83    1
     3    83    33    1
     4    83    82    1
     5    32    82    1
     6    82    64    1
     7    82    81    1
     8    64    84    1
     9     2    85    1
    10    31    81    1
    11    84    85    1
    12    84    66    2
    13    85    86    2
    14    81    41    1
    15    81    80    1
    16     3    87    1
    17     5    80    1
    18    43    89    1
    19    86    87    1
    20    86     1    1
    21    87    88    2
    22    80    79    2
    23    34    89    1
    24    88    89    1
    25    88     4    1
    26    89    90    1
    27    27    68    1
    28    79     6    1
    29    79    78    1
    30     7    78    1
    31    35    90    1
    32    90    68    1
    33    90    91    1
    34    78    77    2
    35    44    91    1
    36    91    36    1
    37    91    92    1
    38    77     8    1
    39    77    76    1
    40     9    76    1
    41    29    70    1
    42    70    92    1
    43    76    75    2
    44    37    93    1
    45    92    93    1
    46    92    72    1
    47    93    13    1
    48    93    49    1
    49    75    10    1
    50    75    74    1
    51    72    55    1
    52    12    74    1
    53    74    73    2
    54    15    49    1
    55    16    50    1
    56    49    50    1
    57    49    51    1
    58    18    55    1
    59    55    51    1
    60    55    57    1
    61    19    57    1
    62    51    17    1
    63    51    53    1
    64    73    11    1
    65    73    59    1
    66    57    59    1
    67    57    39    1
    68    59    21    1
    69    59    56    1
    70    53    54    2
    71    53    52    1
    72    56    61    1
    73    23    61    1
    74    52    47    1
    75    24    63    1
    76    61    63    1
    77    61    62    1
    78    20    58    1
    79    63    58    1
    80    63    65    1
    81    62    69    1
    82    25    65    1
    83    28    69    1
    84    65    48    1
    85    65    67    1
    86    69    67    1
    87    69    71    1
    88    14    48    1
    89    40    71    1
    90    48    38    1
    91    67    26    1
    92    67    60    1
    93    71    46    1
    94    71    30    1
    95    60    22    1
