@<TRIPOS>MOLECULE
72.79997
 93 95 0 0 0
SMALL
GASTEIGER

@<TRIPOS>ATOM
      1 H          30.8960   -4.9000   -4.9110 H       1  UNL1        0.0620
      2 H          31.3420   -7.4900   -6.5270 H       1  UNL1        0.0689
      3 H          30.8750   -7.9110   -4.1660 H       1  UNL1        0.0615
      4 H          29.9370   -5.3810   -2.7000 H       1  UNL1        0.0573
      5 H          34.4580   -3.3090   -5.7080 H       1  UNL1        0.0573
      6 H          34.7470   -6.1800   -6.7770 H       1  UNL1        0.0614
      7 H          34.8620   -4.9420   -3.9200 H       1  UNL1        0.0617
      8 H          34.8340   -7.8310   -4.9820 H       1  UNL1        0.0618
      9 H          34.7290   -6.5850   -2.1340 H       1  UNL1        0.0618
     10 H          34.7480   -9.4920   -3.1460 H       1  UNL1        0.0617
     11 H          34.7430  -11.0970   -1.2110 H       1  UNL1        0.0598
     12 H          34.3750   -8.1710   -0.3530 H       1  UNL1        0.0615
     13 H          29.3460  -11.2330    1.7470 H       1  UNL1        0.0342
     14 H          39.4680  -10.9750    4.7450 H       1  UNL1        0.1186
     15 H          29.8330  -13.7140    0.0170 H       1  UNL1        0.0604
     16 H          28.3180  -13.9560    1.6060 H       1  UNL1        0.2098
     17 H          31.4580  -12.8080    2.4160 H       1  UNL1        0.0465
     18 H          32.4580  -12.4660   -0.4810 H       1  UNL1        0.0607
     19 H          34.2770  -12.6990    1.0150 H       1  UNL1        0.0319
     20 H          37.4270   -9.2440    1.7470 H       1  UNL1        0.2101
     21 H          33.8290   -9.6980    1.3690 H       1  UNL1        0.0642
     22 H          37.6720   -9.4980    6.9210 H       1  UNL1        0.2100
     23 H          35.3890  -11.5460    3.2480 H       1  UNL1        0.0937
     24 H          37.8260  -11.3770    2.7900 H       1  UNL1        0.0660
     25 H          37.1810  -11.3950    5.1790 H       1  UNL1        0.0512
     26 H          36.9960   -8.3380    5.0010 H       1  UNL1        0.0635
     27 H          28.9270   -8.9590   -3.0830 H       1  UNL1        0.2098
     28 H          34.7370  -10.4130    5.2630 H       1  UNL1        0.0620
     29 H          30.2390  -11.0000   -2.1570 H       1  UNL1        0.2128
     30 H          34.2600   -8.2810    6.4480 H       1  UNL1        0.0255
     31 H          34.2450   -4.6310   -8.5080 H       1  UNL1        0.0343
     32 H          32.4910   -2.4080   -7.3500 H       1  UNL1        0.0734
     33 H          32.1650   -4.0320   -9.9180 H       1  UNL1        0.0265
     34 H          28.7130   -7.2270   -1.5010 H       1  UNL1        0.0332
     35 H          31.3190   -8.8430   -1.6690 H       1  UNL1        0.0598
     36 H          28.6120   -9.5640   -0.4550 H       1  UNL1        0.0342
     37 H          28.3670  -11.8080    0.3980 H       1  UNL1        0.0342
     38 H          39.2160   -9.3960    4.5910 H       1  UNL1        0.1186
     39 H          33.4560  -11.8580    2.2980 H       1  UNL1        0.0319
     40 H          33.2570   -8.4570    4.9930 H       1  UNL1        0.0255
     41 H          34.6920   -2.9580   -8.2220 H       1  UNL1        0.0343
     42 H          32.5940   -2.3230   -9.7820 H       1  UNL1        0.0265
     43 H          30.2440   -6.7990   -0.7410 H       1  UNL1        0.0332
     44 H          29.9350   -8.9110    0.5330 H       1  UNL1        0.0342
     45 H          30.9890   -2.8950   -9.2710 H       1  UNL1        0.0265
     46 H          34.6400   -7.3730    4.9650 H       1  UNL1        0.0255
     47 H          33.0710  -15.7310    2.0360 H       1  UNL1        0.2951
     48 N          38.9000  -10.2160    5.1250 N.3     1  UNL1       -0.3229
     49 C          29.9630  -13.1350    0.9390 C.3     1  UNL1        0.0754
     50 O          29.2110  -13.7990    1.9620 O.3     1  UNL1       -0.3907
     51 C          31.4320  -13.0800    1.3510 C.3     1  UNL1        0.1084
     52 O          32.7720  -14.8250    2.2630 O.3     1  UNL1       -0.4803
     53 C          32.0390  -14.4510    1.1930 C.2     1  UNL1        0.3128
     54 O          31.9710  -15.1790    0.2170 O.2     1  UNL1       -0.2505
     55 C          32.2560  -12.0710    0.5240 C.3     1  UNL1        0.0799
     56 O          35.7040  -10.5850    1.4380 O.3     1  UNL1       -0.3413
     57 C          33.6200  -11.8410    1.2120 C.3     1  UNL1        0.0045
     58 O          37.8900   -9.3460    2.6050 O.3     1  UNL1       -0.3851
     59 C          34.3690  -10.5350    0.9090 C.3     1  UNL1        0.0826
     60 O          36.7140   -9.3720    6.7520 O.3     1  UNL1       -0.3876
     61 C          35.7910  -10.6010    2.8660 C.3     1  UNL1        0.1875
     62 O          35.0780   -9.5040    3.4350 O.3     1  UNL1       -0.3431
     63 C          37.2970  -10.5130    3.2090 C.3     1  UNL1        0.1234
     64 O          31.7360   -4.2720   -7.1240 O.3     1  UNL1       -0.4582
     65 C          37.4860  -10.4410    4.7300 C.3     1  UNL1        0.0646
     66 O          32.1220   -6.0760   -8.4980 O.2     1  UNL1       -0.2456
     67 C          36.6160   -9.3160    5.3260 C.3     1  UNL1        0.0987
     68 O          29.6840   -9.4720   -2.7440 O.3     1  UNL1       -0.3913
     69 C          35.1590   -9.4800    4.8650 C.3     1  UNL1        0.0863
     70 O          30.3030  -11.6470   -1.4240 O.3     1  UNL1       -0.3643
     71 C          34.2830   -8.3330    5.3560 C.3     1  UNL1       -0.0361
     72 O          31.5770  -10.8170    0.3740 O.3     1  UNL1       -0.3444
     73 C          34.5560  -10.2510   -0.5560 C.2     1  UNL1       -0.0555
     74 C          34.5290   -9.0000   -1.0420 C.2     1  UNL1       -0.0633
     75 C          34.7020   -8.6690   -2.4360 C.2     1  UNL1       -0.0620
     76 C          34.7750   -7.3980   -2.8570 C.2     1  UNL1       -0.0618
     77 C          34.8570   -7.0260   -4.2500 C.2     1  UNL1       -0.0618
     78 C          34.8690   -5.7460   -4.6530 C.2     1  UNL1       -0.0621
     79 C          34.7540   -5.3750   -6.0430 C.2     1  UNL1       -0.0656
     80 C          34.4970   -4.1170   -6.4350 C.2     1  UNL1       -0.0805
     81 C          34.0700   -3.7770   -7.8430 C.3     1  UNL1        0.0026
     82 C          32.5790   -3.3650   -7.8790 C.3     1  UNL1        0.1040
     83 C          32.0550   -3.1410   -9.2930 C.3     1  UNL1       -0.0274
     84 C          31.7260   -5.5840   -7.4520 C.2     1  UNL1        0.3322
     85 C          31.2880   -6.4270   -6.3180 C.2     1  UNL1        0.0225
     86 C          30.9360   -5.9690   -5.1070 C.2     1  UNL1       -0.0553
     87 C          30.6490   -6.8590   -4.0020 C.2     1  UNL1       -0.0654
     88 C          30.1490   -6.4420   -2.8280 C.2     1  UNL1       -0.0816
     89 C          29.8030   -7.2860   -1.6200 C.3     1  UNL1       -0.0081
     90 C          30.2280   -8.7690   -1.6140 C.3     1  UNL1        0.0635
     91 C          29.7040   -9.4990   -0.3640 C.3     1  UNL1        0.0276
     92 C          30.2700  -10.9310   -0.1980 C.3     1  UNL1        0.1723
     93 C          29.3970  -11.7290    0.7680 C.3     1  UNL1        0.0282
@<TRIPOS>BOND
     1    33    83    1
     2    42    83    1
     3    83    45    1
     4    83    82    1
     5    31    81    1
     6    66    84    2
     7    41    81    1
     8    82    81    1
     9    82    32    1
    10    82    64    1
    11    81    80    1
    12    84    64    1
    13    84    85    1
    14     6    79    1
    15     2    85    1
    16    80    79    2
    17    80     5    1
    18    85    86    2
    19    79    78    1
    20    86     1    1
    21    86    87    1
    22     8    77    1
    23    78    77    2
    24    78     7    1
    25    77    76    1
    26     3    87    1
    27    87    88    2
    28    10    75    1
    29    27    68    1
    30    76    75    2
    31    76     9    1
    32    88     4    1
    33    88    89    1
    34    68    90    1
    35    75    74    1
    36    29    70    1
    37    35    90    1
    38    89    90    1
    39    89    34    1
    40    89    43    1
    41    90    91    1
    42    70    92    1
    43    11    73    1
    44    74    73    2
    45    74    12    1
    46    73    59    1
    47    18    55    1
    48    36    91    1
    49    91    92    1
    50    91    44    1
    51    92    72    1
    52    92    93    1
    53    15    49    1
    54    54    53    2
    55    72    55    1
    56    37    93    1
    57    55    57    1
    58    55    51    1
    59    93    49    1
    60    93    13    1
    61    59    57    1
    62    59    21    1
    63    59    56    1
    64    49    51    1
    65    49    50    1
    66    19    57    1
    67    53    51    1
    68    53    52    1
    69    57    39    1
    70    51    17    1
    71    56    61    1
    72    16    50    1
    73    20    58    1
    74    47    52    1
    75    58    63    1
    76    24    63    1
    77    61    63    1
    78    61    23    1
    79    61    62    1
    80    63    65    1
    81    62    69    1
    82    38    48    1
    83    65    48    1
    84    65    25    1
    85    65    67    1
    86    14    48    1
    87    69    28    1
    88    69    67    1
    89    69    71    1
    90    46    71    1
    91    40    71    1
    92    26    67    1
    93    67    60    1
    94    71    30    1
    95    60    22    1
