@<TRIPOS>MOLECULE
68.43696
 93 95 0 0 0
SMALL
GASTEIGER

@<TRIPOS>ATOM
      1 H          29.0940   -4.5740   -4.6820 H       1  UNL1        0.0620
      2 H          31.1570   -6.4920   -5.9460 H       1  UNL1        0.0689
      3 H          30.4290   -7.2080   -3.6720 H       1  UNL1        0.0615
      4 H          28.3620   -5.2910   -2.4430 H       1  UNL1        0.0573
      5 H          32.8270   -1.7240   -6.8250 H       1  UNL1        0.0573
      6 H          34.0310   -4.3220   -5.7050 H       1  UNL1        0.0614
      7 H          33.2010   -1.6330   -4.3720 H       1  UNL1        0.0617
      8 H          33.9250   -4.4140   -3.2720 H       1  UNL1        0.0618
      9 H          33.3610   -1.6820   -1.8930 H       1  UNL1        0.0618
     10 H          33.5890   -4.5740   -0.8650 H       1  UNL1        0.0617
     11 H          32.9520   -4.7660    1.4690 H       1  UNL1        0.0598
     12 H          33.3290   -1.8420    0.5980 H       1  UNL1        0.0615
     13 H          27.8080   -5.4590    2.0730 H       1  UNL1        0.0342
     14 H          34.8910   -6.1060    8.2080 H       1  UNL1        0.1186
     15 H          28.5440   -5.8450    5.0150 H       1  UNL1        0.0604
     16 H          26.3670   -5.6770    4.5320 H       1  UNL1        0.2098
     17 H          28.6180   -3.2460    3.3990 H       1  UNL1        0.0465
     18 H          31.0620   -4.8570    4.3380 H       1  UNL1        0.0607
     19 H          31.2130   -2.3190    4.1440 H       1  UNL1        0.0319
     20 H          35.4160   -4.8370    4.4150 H       1  UNL1        0.2101
     21 H          33.2640   -2.1590    3.0250 H       1  UNL1        0.0642
     22 H          35.6140   -3.2170    9.3090 H       1  UNL1        0.2100
     23 H          32.5550   -3.4300    5.6290 H       1  UNL1        0.0937
     24 H          33.7090   -5.6100    5.9590 H       1  UNL1        0.0660
     25 H          33.5760   -4.1620    7.9630 H       1  UNL1        0.0512
     26 H          36.2460   -2.9430    7.0690 H       1  UNL1        0.0635
     27 H          31.0230   -5.1300   -1.0960 H       1  UNL1        0.2098
     28 H          33.4310   -1.6990    7.0460 H       1  UNL1        0.0620
     29 H          31.2400   -7.3250    3.1940 H       1  UNL1        0.2128
     30 H          35.2310   -0.0540    7.5290 H       1  UNL1        0.0255
     31 H          34.0440   -4.2500   -8.1100 H       1  UNL1        0.0343
     32 H          31.2560   -3.0870   -8.7130 H       1  UNL1        0.0734
     33 H          32.7770   -5.4010  -10.0260 H       1  UNL1        0.0265
     34 H          29.7640   -7.8900   -1.4920 H       1  UNL1        0.0332
     35 H          29.1660   -5.3190    0.0890 H       1  UNL1        0.0598
     36 H          30.7840   -7.6570    1.1340 H       1  UNL1        0.0342
     37 H          27.7540   -6.9570    2.9950 H       1  UNL1        0.0342
     38 H          36.2000   -5.3790    7.6260 H       1  UNL1        0.1186
     39 H          30.8090   -2.4590    2.4430 H       1  UNL1        0.0319
     40 H          34.5480    0.1830    5.9060 H       1  UNL1        0.0255
     41 H          33.7580   -2.6980   -8.8980 H       1  UNL1        0.0343
     42 H          32.4370   -3.8250  -10.7800 H       1  UNL1        0.0265
     43 H          28.1420   -7.3690   -1.0170 H       1  UNL1        0.0332
     44 H          29.0490   -7.8590    1.1750 H       1  UNL1        0.0342
     45 H          31.1150   -4.9380  -10.3610 H       1  UNL1        0.0265
     46 H          36.1130   -0.5970    6.0810 H       1  UNL1        0.0255
     47 H          28.6070   -1.9390    6.5100 H       1  UNL1        0.2951
     48 N          35.3680   -5.2030    8.2040 N.3     1  UNL1       -0.3229
     49 C          28.2370   -5.2240    4.1650 C.3     1  UNL1        0.0754
     50 O          26.8710   -4.8570    4.3820 O.3     1  UNL1       -0.3907
     51 C          29.0970   -3.9640    4.0790 C.3     1  UNL1        0.1084
     52 O          28.4990   -2.2080    5.5740 O.3     1  UNL1       -0.4803
     53 C          29.1950   -3.3540    5.4540 C.2     1  UNL1        0.3128
     54 O          29.8580   -3.7780    6.3880 O.2     1  UNL1       -0.2505
     55 C          30.5150   -4.2880    3.5770 C.3     1  UNL1        0.0799
     56 O          33.4630   -4.0360    3.8580 O.3     1  UNL1       -0.3413
     57 C          31.2900   -2.9860    3.2770 C.3     1  UNL1        0.0045
     58 O          35.5620   -4.9860    5.3730 O.3     1  UNL1       -0.3851
     59 C          32.7910   -3.1480    2.9630 C.3     1  UNL1        0.0826
     60 O          35.3160   -2.4200    8.8220 O.3     1  UNL1       -0.3876
     61 C          33.5570   -3.5700    5.2090 C.3     1  UNL1        0.1875
     62 O          34.2760   -2.3400    5.2680 O.3     1  UNL1       -0.3431
     63 C          34.2930   -4.6830    5.9920 C.3     1  UNL1        0.1234
     64 O          31.5290   -4.9520   -7.7530 O.3     1  UNL1       -0.4582
     65 C          34.5370   -4.2380    7.4380 C.3     1  UNL1        0.0646
     66 O          29.8330   -3.6170   -6.9360 O.2     1  UNL1       -0.2456
     67 C          35.2250   -2.8580    7.4630 C.3     1  UNL1        0.0987
     68 O          31.0870   -5.8500   -0.4430 O.3     1  UNL1       -0.3913
     69 C          34.4260   -1.8600    6.6100 C.3     1  UNL1        0.0863
     70 O          30.3480   -7.0990    3.5160 O.3     1  UNL1       -0.3643
     71 C          35.1210   -0.5040    6.5380 C.3     1  UNL1       -0.0361
     72 O          30.4720   -5.0730    2.3810 O.3     1  UNL1       -0.3444
     73 C          33.0290   -3.6850    1.5780 C.2     1  UNL1       -0.0555
     74 C          33.2850   -2.9240    0.5020 C.2     1  UNL1       -0.0633
     75 C          33.4800   -3.4910   -0.8130 C.2     1  UNL1       -0.0620
     76 C          33.4990   -2.7600   -1.9370 C.2     1  UNL1       -0.0618
     77 C          33.6670   -3.3570   -3.2440 C.2     1  UNL1       -0.0618
     78 C          33.4910   -2.6810   -4.3900 C.2     1  UNL1       -0.0621
     79 C          33.6340   -3.3080   -5.6840 C.2     1  UNL1       -0.0656
     80 C          33.2580   -2.7230   -6.8320 C.2     1  UNL1       -0.0805
     81 C          33.3420   -3.4080   -8.1730 C.3     1  UNL1        0.0026
     82 C          31.9710   -3.9170   -8.6570 C.3     1  UNL1        0.1040
     83 C          32.0870   -4.5500  -10.0390 C.3     1  UNL1       -0.0274
     84 C          30.5310   -4.6160   -6.8980 C.2     1  UNL1        0.3322
     85 C          30.4930   -5.6440   -5.8370 C.2     1  UNL1        0.0225
     86 C          29.7260   -5.4590   -4.7540 C.2     1  UNL1       -0.0553
     87 C          29.7510   -6.3580   -3.6230 C.2     1  UNL1       -0.0654
     88 C          29.0340   -6.1450   -2.5090 C.2     1  UNL1       -0.0816
     89 C          29.1440   -7.0100   -1.2780 C.3     1  UNL1       -0.0081
     90 C          29.7490   -6.2290   -0.0980 C.3     1  UNL1        0.0635
     91 C          29.8390   -7.0970    1.1630 C.3     1  UNL1        0.0276
     92 C          29.7690   -6.3020    2.4880 C.3     1  UNL1        0.1723
     93 C          28.3150   -6.0230    2.8670 C.3     1  UNL1        0.0282
@<TRIPOS>BOND
     1    42    83    1
     2    45    83    1
     3    83    33    1
     4    83    82    1
     5    41    81    1
     6    32    82    1
     7    82    81    1
     8    82    64    1
     9    81    31    1
    10    81    80    1
    11    64    84    1
    12    66    84    2
    13    84    85    1
    14    80     5    1
    15    80    79    2
    16     2    85    1
    17    85    86    2
    18     6    79    1
    19    79    78    1
    20    86     1    1
    21    86    87    1
    22    78     7    1
    23    78    77    2
    24     3    87    1
    25    87    88    2
    26     8    77    1
    27    77    76    1
    28    88     4    1
    29    88    89    1
    30    76     9    1
    31    76    75    2
    32    34    89    1
    33    89    43    1
    34    89    90    1
    35    27    68    1
    36    10    75    1
    37    75    74    1
    38    68    90    1
    39    90    35    1
    40    90    91    1
    41    74    12    1
    42    74    73    2
    43    36    91    1
    44    91    44    1
    45    91    92    1
    46    11    73    1
    47    73    59    1
    48    13    93    1
    49    72    92    1
    50    72    55    1
    51    39    57    1
    52    92    93    1
    53    92    70    1
    54    93    37    1
    55    93    49    1
    56    59    21    1
    57    59    57    1
    58    59    56    1
    59    29    70    1
    60    57    55    1
    61    57    19    1
    62    17    51    1
    63    55    51    1
    64    55    18    1
    65    56    61    1
    66    51    49    1
    67    51    53    1
    68    49    50    1
    69    49    15    1
    70    50    16    1
    71    20    58    1
    72    61    62    1
    73    61    23    1
    74    61    63    1
    75    62    69    1
    76    58    63    1
    77    53    52    1
    78    53    54    2
    79    52    47    1
    80    40    71    1
    81    24    63    1
    82    63    65    1
    83    46    71    1
    84    71    69    1
    85    71    30    1
    86    69    28    1
    87    69    67    1
    88    26    67    1
    89    65    67    1
    90    65    25    1
    91    65    48    1
    92    67    60    1
    93    38    48    1
    94    48    14    1
    95    60    22    1
