@<TRIPOS>MOLECULE
69.00974
 93 95 0 0 0
SMALL
GASTEIGER

@<TRIPOS>ATOM
      1 H          29.8060   -5.3950   -4.1540 H       1  UNL1        0.0620
      2 H          32.7300   -6.3570   -3.9380 H       1  UNL1        0.0689
      3 H          31.5130   -6.3470   -1.7240 H       1  UNL1        0.0615
      4 H          28.7370   -5.0650   -1.9970 H       1  UNL1        0.0573
      5 H          30.6030   -8.6740   -8.3340 H       1  UNL1        0.0573
      6 H          31.6600   -9.1300   -5.4860 H       1  UNL1        0.0614
      7 H          28.8930   -9.7310   -6.7480 H       1  UNL1        0.0617
      8 H          29.8250   -9.0250   -3.9030 H       1  UNL1        0.0618
      9 H          27.1920  -10.3090   -4.9170 H       1  UNL1        0.0618
     10 H          27.9750   -8.7270   -2.3990 H       1  UNL1        0.0617
     11 H          26.1270   -8.3930   -0.8970 H       1  UNL1        0.0598
     12 H          25.5470  -10.5690   -2.9830 H       1  UNL1        0.0615
     13 H          27.7490   -8.7440    3.8320 H       1  UNL1        0.0342
     14 H          19.3610   -5.9610    0.6400 H       1  UNL1        0.1186
     15 H          24.8960   -7.8290    4.4300 H       1  UNL1        0.0604
     16 H          26.1400   -8.5340    6.1570 H       1  UNL1        0.2098
     17 H          25.7660  -10.5450    3.3160 H       1  UNL1        0.0465
     18 H          24.3730   -8.2930    1.7560 H       1  UNL1        0.0607
     19 H          23.9070  -10.7730    1.1790 H       1  UNL1        0.0319
     20 H          22.1970   -7.3350   -1.8810 H       1  UNL1        0.2101
     21 H          23.9440  -10.5320   -1.1630 H       1  UNL1        0.0642
     22 H          17.5890   -8.5430    0.1350 H       1  UNL1        0.2100
     23 H          22.2390   -9.2490    0.9490 H       1  UNL1        0.0937
     24 H          21.7870   -6.8520    0.4520 H       1  UNL1        0.0660
     25 H          19.8760   -8.1510    1.3430 H       1  UNL1        0.0512
     26 H          19.1780   -8.8320   -1.5660 H       1  UNL1        0.0635
     27 H          26.9090   -5.5030   -0.7910 H       1  UNL1        0.2098
     28 H          20.3250  -10.6490    0.6360 H       1  UNL1        0.0620
     29 H          26.0090   -5.9170    1.5330 H       1  UNL1        0.2128
     30 H          18.7830  -11.8320   -0.9120 H       1  UNL1        0.0255
     31 H          32.9890   -8.6990   -8.8410 H       1  UNL1        0.0343
     32 H          34.1220   -6.7270   -7.9140 H       1  UNL1        0.0734
     33 H          31.2630   -6.1330   -8.7720 H       1  UNL1        0.0265
     34 H          29.4720   -4.7570    0.4670 H       1  UNL1        0.0332
     35 H          28.0070   -7.3520   -0.2600 H       1  UNL1        0.0598
     36 H          28.4180   -6.0410    2.4700 H       1  UNL1        0.0342
     37 H          27.2410   -7.1790    4.4600 H       1  UNL1        0.0342
     38 H          19.1280   -6.4260   -0.8810 H       1  UNL1        0.1186
     39 H          25.5980  -10.9030    0.7260 H       1  UNL1        0.0319
     40 H          20.4700  -12.3210   -1.1720 H       1  UNL1        0.0255
     41 H          33.4150   -8.8870   -7.1480 H       1  UNL1        0.0343
     42 H          32.7140   -6.2190   -9.7630 H       1  UNL1        0.0265
     43 H          30.3110   -6.3140    0.3670 H       1  UNL1        0.0332
     44 H          28.9470   -7.6620    1.9750 H       1  UNL1        0.0342
     45 H          32.5270   -4.9140   -8.5720 H       1  UNL1        0.0265
     46 H          19.7060  -11.2130   -2.3020 H       1  UNL1        0.0255
     47 H          22.6870  -11.3810    4.4130 H       1  UNL1        0.2951
     48 N          18.9900   -6.7380    0.0900 N.3     1  UNL1       -0.3229
     49 C          25.6480   -8.6100    4.2630 C.3     1  UNL1        0.0754
     50 O          25.8940   -9.2350    5.5280 O.3     1  UNL1       -0.3907
     51 C          25.1280   -9.6530    3.2710 C.3     1  UNL1        0.1084
     52 O          23.6260  -11.2800    4.1510 O.3     1  UNL1       -0.4803
     53 C          23.7220  -10.0270    3.6670 C.2     1  UNL1        0.3128
     54 O          22.7250   -9.3330    3.5430 O.2     1  UNL1       -0.2505
     55 C          25.1170   -9.0950    1.8370 C.3     1  UNL1        0.0799
     56 O          23.4670   -8.6030   -0.5980 O.3     1  UNL1       -0.3413
     57 C          24.7620  -10.1970    0.8080 C.3     1  UNL1        0.0045
     58 O          21.3150   -7.1120   -1.5180 O.3     1  UNL1       -0.3851
     59 C          24.3860   -9.6960   -0.6080 C.3     1  UNL1        0.0826
     60 O          18.0180   -9.4180    0.0230 O.3     1  UNL1       -0.3876
     61 C          22.1650   -8.9280   -0.0950 C.3     1  UNL1        0.1875
     62 O          21.5700   -9.9660   -0.8710 O.3     1  UNL1       -0.3431
     63 C          21.3280   -7.6290   -0.1710 C.3     1  UNL1        0.1234
     64 O          32.9130   -6.4170   -6.3340 O.3     1  UNL1       -0.4582
     65 C          19.8870   -7.9090    0.2730 C.3     1  UNL1        0.0646
     66 O          30.7720   -5.5560   -6.4890 O.2     1  UNL1       -0.2456
     67 C          19.3080   -9.1050   -0.5100 C.3     1  UNL1        0.0987
     68 O          27.0330   -5.5900    0.1720 O.3     1  UNL1       -0.3913
     69 C          20.2580  -10.3090   -0.4050 C.3     1  UNL1        0.0863
     70 O          25.8290   -6.4440    2.3420 O.3     1  UNL1       -0.3643
     71 C          19.7660  -11.4850   -1.2420 C.3     1  UNL1       -0.0361
     72 O          26.4090   -8.5560    1.5080 O.3     1  UNL1       -0.3444
     73 C          25.6000   -9.2220   -1.3560 C.2     1  UNL1       -0.0555
     74 C          26.0790   -9.7600   -2.4880 C.2     1  UNL1       -0.0633
     75 C          27.3490   -9.3470   -3.0390 C.2     1  UNL1       -0.0620
     76 C          27.8070   -9.7160   -4.2440 C.2     1  UNL1       -0.0618
     77 C          29.1420   -9.3700   -4.6780 C.2     1  UNL1       -0.0618
     78 C          29.5690   -9.4440   -5.9460 C.2     1  UNL1       -0.0621
     79 C          30.9310   -9.1130   -6.2940 C.2     1  UNL1       -0.0656
     80 C          31.3230   -8.7410   -7.5220 C.2     1  UNL1       -0.0805
     81 C          32.7450   -8.3480   -7.8310 C.3     1  UNL1        0.0026
     82 C          33.0490   -6.8400   -7.7160 C.3     1  UNL1        0.1040
     83 C          32.3450   -5.9770   -8.7600 C.3     1  UNL1       -0.0274
     84 C          31.7430   -5.9300   -5.8560 C.2     1  UNL1        0.3322
     85 C          31.8040   -6.0100   -4.3790 C.2     1  UNL1        0.0225
     86 C          30.7130   -5.7300   -3.6510 C.2     1  UNL1       -0.0553
     87 C          30.6530   -5.8980   -2.2160 C.2     1  UNL1       -0.0654
     88 C          29.5770   -5.5440   -1.4970 C.2     1  UNL1       -0.0816
     89 C          29.4510   -5.7460   -0.0060 C.3     1  UNL1       -0.0081
     90 C          28.1450   -6.4720    0.3750 C.3     1  UNL1        0.0635
     91 C          28.1590   -6.9090    1.8500 C.3     1  UNL1        0.0276
     92 C          26.8100   -7.4730    2.3460 C.3     1  UNL1        0.1723
     93 C          26.9540   -7.9880    3.7760 C.3     1  UNL1        0.0282
@<TRIPOS>BOND
     1    42    83    1
     2    31    81    1
     3    33    83    1
     4    83    45    1
     5    83    82    1
     6     5    80    1
     7    32    82    1
     8    81    82    1
     9    81    80    1
    10    81    41    1
    11    82    64    1
    12    80    79    2
    13     7    78    1
    14    66    84    2
    15    64    84    1
    16    79    78    1
    17    79     6    1
    18    78    77    2
    19    84    85    1
    20     9    76    1
    21    77    76    1
    22    77     8    1
    23    85     2    1
    24    85    86    2
    25    76    75    2
    26     1    86    1
    27    86    87    1
    28    75    74    1
    29    75    10    1
    30    12    74    1
    31    74    73    2
    32    46    71    1
    33    87     3    1
    34    87    88    2
    35     4    88    1
    36    20    58    1
    37    26    67    1
    38    58    63    1
    39    88    89    1
    40    73    11    1
    41    73    59    1
    42    71    40    1
    43    71    30    1
    44    71    69    1
    45    21    59    1
    46    38    48    1
    47    62    69    1
    48    62    61    1
    49    27    68    1
    50    59    56    1
    51    59    57    1
    52    56    61    1
    53    67    69    1
    54    67    60    1
    55    67    65    1
    56    69    28    1
    57    35    90    1
    58    63    61    1
    59    63    65    1
    60    63    24    1
    61    61    23    1
    62    89    43    1
    63    89    90    1
    64    89    34    1
    65    60    22    1
    66    48    65    1
    67    48    14    1
    68    68    90    1
    69    65    25    1
    70    90    91    1
    71    39    57    1
    72    57    19    1
    73    57    55    1
    74    72    55    1
    75    72    92    1
    76    29    70    1
    77    18    55    1
    78    55    51    1
    79    91    44    1
    80    91    92    1
    81    91    36    1
    82    70    92    1
    83    92    93    1
    84    51    17    1
    85    51    53    1
    86    51    49    1
    87    54    53    2
    88    53    52    1
    89    93    13    1
    90    93    49    1
    91    93    37    1
    92    52    47    1
    93    49    15    1
    94    49    50    1
    95    50    16    1
