@<TRIPOS>MOLECULE
75.24972
 93 95 0 0 0
SMALL
GASTEIGER

@<TRIPOS>ATOM
      1 H          30.2890   -4.4600   -4.2890 H       1  UNL1        0.0620
      2 H          31.7040   -6.6970   -5.8820 H       1  UNL1        0.0689
      3 H          31.6360   -7.1220   -3.3690 H       1  UNL1        0.0615
      4 H          29.7160   -5.1300   -2.0300 H       1  UNL1        0.0573
      5 H          27.8800   -4.2900   -6.4150 H       1  UNL1        0.0573
      6 H          26.9360   -6.8820   -5.0500 H       1  UNL1        0.0614
      7 H          27.1020   -3.9070   -4.1420 H       1  UNL1        0.0617
      8 H          26.5890   -6.5290   -2.6180 H       1  UNL1        0.0618
      9 H          26.5840   -3.5270   -1.7900 H       1  UNL1        0.0618
     10 H          26.5250   -6.1420   -0.1710 H       1  UNL1        0.0617
     11 H          26.7200   -5.7030    2.2410 H       1  UNL1        0.0598
     12 H          26.3590   -3.1300    0.6100 H       1  UNL1        0.0615
     13 H          29.1130   -7.7090    3.8850 H       1  UNL1        0.0342
     14 H          23.1530    1.5810    3.7760 H       1  UNL1        0.1186
     15 H          30.7180   -5.9220    5.7710 H       1  UNL1        0.0604
     16 H          30.0560   -7.8730    6.6010 H       1  UNL1        0.2098
     17 H          27.7520   -5.7460    5.0520 H       1  UNL1        0.0465
     18 H          30.0280   -3.8550    4.1980 H       1  UNL1        0.0607
     19 H          28.4310   -2.7210    2.7950 H       1  UNL1        0.0319
     20 H          23.6380   -2.2440    2.6100 H       1  UNL1        0.2101
     21 H          26.1880   -4.3560    4.1130 H       1  UNL1        0.0642
     22 H          22.5350    0.6420    6.7620 H       1  UNL1        0.2100
     23 H          26.2840   -1.3750    4.5920 H       1  UNL1        0.0937
     24 H          24.8580   -0.1730    2.9420 H       1  UNL1        0.0660
     25 H          24.7000    0.6140    5.2840 H       1  UNL1        0.0512
     26 H          22.4380   -1.4230    5.6660 H       1  UNL1        0.0635
     27 H          32.0730   -5.0100   -0.3210 H       1  UNL1        0.2098
     28 H          25.3060   -1.4820    6.7800 H       1  UNL1        0.0620
     29 H          31.9590   -5.3410    2.3220 H       1  UNL1        0.2128
     30 H          23.6250   -2.4750    8.3150 H       1  UNL1        0.0255
     31 H          27.6090   -5.5930   -8.4150 H       1  UNL1        0.0343
     32 H          29.6410   -7.2380   -6.7890 H       1  UNL1        0.0734
     33 H          29.3080   -6.9400   -9.8140 H       1  UNL1        0.0265
     34 H          31.3040   -7.5740   -0.9890 H       1  UNL1        0.0332
     35 H          29.8840   -5.2360    0.4060 H       1  UNL1        0.0598
     36 H          31.1790   -7.7070    1.6840 H       1  UNL1        0.0342
     37 H          30.8270   -7.8390    4.2600 H       1  UNL1        0.0342
     38 H          22.0910    0.3980    4.0060 H       1  UNL1        0.1186
     39 H          28.0110   -2.5970    4.4800 H       1  UNL1        0.0319
     40 H          24.6650   -3.7220    7.5960 H       1  UNL1        0.0255
     41 H          27.2410   -7.0710   -7.5270 H       1  UNL1        0.0343
     42 H          28.9330   -8.3990   -8.8650 H       1  UNL1        0.0265
     43 H          29.5370   -7.4660   -0.8610 H       1  UNL1        0.0332
     44 H          29.4200   -7.4960    1.4990 H       1  UNL1        0.0342
     45 H          30.6030   -7.8040   -8.9980 H       1  UNL1        0.0265
     46 H          23.0290   -3.5070    6.9930 H       1  UNL1        0.0255
     47 H          27.5340   -3.7920    7.7740 H       1  UNL1        0.2951
     48 N          22.7970    0.9570    4.5030 N.3     1  UNL1       -0.3229
     49 C          29.7770   -6.3500    5.4050 C.3     1  UNL1        0.0754
     50 O          29.3140   -7.2760    6.3930 O.3     1  UNL1       -0.3907
     51 C          28.7240   -5.2590    5.2000 C.3     1  UNL1        0.1084
     52 O          27.4260   -4.3210    6.9560 O.3     1  UNL1       -0.4803
     53 C          28.6650   -4.4000    6.4350 C.2     1  UNL1        0.3128
     54 O          29.5850   -3.7730    6.9340 O.2     1  UNL1       -0.2505
     55 C          29.0910   -4.3910    3.9920 C.3     1  UNL1        0.0799
     56 O          25.7650   -2.6450    3.0350 O.3     1  UNL1       -0.3413
     57 C          28.0500   -3.3050    3.6460 C.3     1  UNL1        0.0045
     58 O          23.2660   -1.4460    3.0410 O.3     1  UNL1       -0.3851
     59 C          26.6190   -3.7700    3.2940 C.3     1  UNL1        0.0826
     60 O          23.0270   -0.1180    7.1380 O.3     1  UNL1       -0.3876
     61 C          25.4000   -1.8790    4.1870 C.3     1  UNL1        0.1875
     62 O          24.8120   -2.7070    5.1860 O.3     1  UNL1       -0.3431
     63 C          24.3870   -0.8170    3.6950 C.3     1  UNL1        0.1234
     64 O          30.2230   -5.4800   -7.8250 O.3     1  UNL1       -0.4582
     65 C          23.8760    0.0090    4.8820 C.3     1  UNL1        0.0646
     66 O          31.1810   -3.7040   -6.8040 O.2     1  UNL1       -0.2456
     67 C          23.3550   -0.9190    5.9980 C.3     1  UNL1        0.0987
     68 O          31.9160   -5.5080    0.5040 O.3     1  UNL1       -0.3913
     69 C          24.4210   -1.9680    6.3500 C.3     1  UNL1        0.0863
     70 O          31.5780   -5.5510    3.2010 O.3     1  UNL1       -0.3643
     71 C          23.9010   -2.9680    7.3780 C.3     1  UNL1       -0.0361
     72 O          29.2980   -5.1980    2.8310 O.3     1  UNL1       -0.3444
     73 C          26.5840   -4.6400    2.0560 C.2     1  UNL1       -0.0555
     74 C          26.4590   -4.1980    0.7930 C.2     1  UNL1       -0.0633
     75 C          26.5080   -5.0710   -0.3590 C.2     1  UNL1       -0.0620
     76 C          26.5760   -4.6020   -1.6140 C.2     1  UNL1       -0.0618
     77 C          26.6920   -5.4580   -2.7750 C.2     1  UNL1       -0.0618
     78 C          26.9700   -4.9780   -3.9970 C.2     1  UNL1       -0.0621
     79 C          27.1600   -5.8230   -5.1550 C.2     1  UNL1       -0.0656
     80 C          27.6370   -5.3480   -6.3160 C.2     1  UNL1       -0.0805
     81 C          27.8940   -6.1890   -7.5380 C.3     1  UNL1        0.0026
     82 C          29.3630   -6.6370   -7.6610 C.3     1  UNL1        0.1040
     83 C          29.5550   -7.5000   -8.9050 C.3     1  UNL1       -0.0274
     84 C          30.8660   -4.8860   -6.7900 C.2     1  UNL1        0.3322
     85 C          31.2040   -5.7650   -5.6600 C.2     1  UNL1        0.0225
     86 C          30.8190   -5.4020   -4.4290 C.2     1  UNL1       -0.0553
     87 C          31.0070   -6.2400   -3.2680 C.2     1  UNL1       -0.0654
     88 C          30.3810   -5.9890   -2.1080 C.2     1  UNL1       -0.0816
     89 C          30.4620   -6.8770   -0.8940 C.3     1  UNL1       -0.0081
     90 C          30.5990   -6.0660    0.4050 C.3     1  UNL1        0.0635
     91 C          30.3710   -6.9650    1.6300 C.3     1  UNL1        0.0276
     92 C          30.3280   -6.1730    2.9500 C.3     1  UNL1        0.1723
     93 C          30.0130   -7.1200    4.1080 C.3     1  UNL1        0.0282
@<TRIPOS>BOND
     1    33    83    1
     2    45    83    1
     3    83    42    1
     4    83    82    1
     5    31    81    1
     6    64    82    1
     7    64    84    1
     8    82    81    1
     9    82    32    1
    10    81    41    1
    11    81    80    1
    12    66    84    2
    13    84    85    1
    14     5    80    1
    15    80    79    2
    16     2    85    1
    17    85    86    2
    18    79     6    1
    19    79    78    1
    20    86     1    1
    21    86    87    1
    22     7    78    1
    23    78    77    2
    24     3    87    1
    25    87    88    2
    26    77     8    1
    27    77    76    1
    28    88     4    1
    29    88    89    1
    30     9    76    1
    31    76    75    2
    32    34    89    1
    33    89    43    1
    34    89    90    1
    35    75    10    1
    36    75    74    1
    37    27    68    1
    38    90    35    1
    39    90    68    1
    40    90    91    1
    41    12    74    1
    42    74    73    2
    43    44    91    1
    44    91    36    1
    45    91    92    1
    46    73    11    1
    47    73    59    1
    48    29    70    1
    49    20    58    1
    50    19    57    1
    51    72    92    1
    52    72    55    1
    53    24    63    1
    54    92    70    1
    55    92    93    1
    56    56    59    1
    57    56    61    1
    58    58    63    1
    59    59    57    1
    60    59    21    1
    61    57    55    1
    62    57    39    1
    63    63    61    1
    64    63    65    1
    65    14    48    1
    66    13    93    1
    67    55    18    1
    68    55    51    1
    69    38    48    1
    70    93    37    1
    71    93    49    1
    72    61    23    1
    73    61    62    1
    74    48    65    1
    75    65    25    1
    76    65    67    1
    77    17    51    1
    78    62    69    1
    79    51    49    1
    80    51    53    1
    81    49    15    1
    82    49    50    1
    83    26    67    1
    84    67    69    1
    85    67    60    1
    86    69    28    1
    87    69    71    1
    88    50    16    1
    89    53    54    2
    90    53    52    1
    91    22    60    1
    92    52    47    1
    93    46    71    1
    94    71    40    1
    95    71    30    1
