@<TRIPOS>MOLECULE
76.86062
 93 95 0 0 0
SMALL
GASTEIGER

@<TRIPOS>ATOM
      1 H          27.9160   -4.7220   -3.1100 H       1  UNL1        0.0620
      2 H          30.5630   -3.2970   -3.7860 H       1  UNL1        0.0689
      3 H          30.7220   -4.7640   -1.7480 H       1  UNL1        0.0615
      4 H          28.0550   -6.1980   -1.2150 H       1  UNL1        0.0573
      5 H          26.4060   -6.0030   -4.7490 H       1  UNL1        0.0573
      6 H          27.9950   -6.8160   -7.2600 H       1  UNL1        0.0614
      7 H          28.1410   -7.4360   -4.2210 H       1  UNL1        0.0617
      8 H          29.8150   -8.5090   -6.5690 H       1  UNL1        0.0618
      9 H          30.1720   -8.2840   -3.5090 H       1  UNL1        0.0618
     10 H          31.6900  -10.0340   -5.5230 H       1  UNL1        0.0617
     11 H          33.5220  -11.3010   -4.1470 H       1  UNL1        0.0598
     12 H          32.2180   -8.9690   -2.6580 H       1  UNL1        0.0615
     13 H          32.0070  -10.7120    2.4920 H       1  UNL1        0.0342
     14 H          40.6050  -10.7950   -3.3300 H       1  UNL1        0.1186
     15 H          30.7140  -13.1540    1.1780 H       1  UNL1        0.0604
     16 H          31.0610  -13.3020    3.3650 H       1  UNL1        0.2098
     17 H          33.6680  -12.4470    1.2930 H       1  UNL1        0.0465
     18 H          31.9910  -12.1380   -1.2720 H       1  UNL1        0.0607
     19 H          34.3480  -12.6180   -1.6740 H       1  UNL1        0.0319
     20 H          36.9200   -9.3360   -4.0680 H       1  UNL1        0.2101
     21 H          34.2280   -9.5600   -1.6990 H       1  UNL1        0.0642
     22 H          40.9020   -8.9010   -0.7920 H       1  UNL1        0.2100
     23 H          36.7790  -11.2750   -1.2570 H       1  UNL1        0.0937
     24 H          38.0770  -11.3440   -3.3740 H       1  UNL1        0.0660
     25 H          39.3960  -10.9820   -1.3090 H       1  UNL1        0.0512
     26 H          38.9700   -7.9750   -1.7440 H       1  UNL1        0.0635
     27 H          28.7230   -8.3520   -1.6670 H       1  UNL1        0.2098
     28 H          37.7510   -9.8230    0.3930 H       1  UNL1        0.0620
     29 H          29.4680  -10.3940   -0.5980 H       1  UNL1        0.2128
     30 H          38.1790   -7.5150    1.2110 H       1  UNL1        0.0255
     31 H          25.1330   -4.6280   -6.1580 H       1  UNL1        0.0343
     32 H          27.8510   -3.7710   -7.2440 H       1  UNL1        0.0734
     33 H          25.4810   -2.1510   -6.1500 H       1  UNL1        0.0265
     34 H          29.1230   -6.6760    0.9030 H       1  UNL1        0.0332
     35 H          30.9120   -8.1460   -1.1170 H       1  UNL1        0.0598
     36 H          29.8320   -8.9520    1.6190 H       1  UNL1        0.0342
     37 H          30.3000  -11.1510    2.4900 H       1  UNL1        0.0342
     38 H          40.2300   -9.2410   -3.4900 H       1  UNL1        0.1186
     39 H          34.8320  -11.5250   -0.4020 H       1  UNL1        0.0319
     40 H          36.4420   -7.8230    1.0070 H       1  UNL1        0.0255
     41 H          25.9370   -5.1480   -7.6340 H       1  UNL1        0.0343
     42 H          25.8340   -2.4130   -7.8750 H       1  UNL1        0.0265
     43 H          30.7130   -6.1580    0.3460 H       1  UNL1        0.0332
     44 H          31.5030   -8.4260    1.3260 H       1  UNL1        0.0342
     45 H          26.9460   -1.4800   -6.8500 H       1  UNL1        0.0265
     46 H          37.2960   -6.8570   -0.1870 H       1  UNL1        0.0255
     47 H          32.2320  -15.6140   -0.5590 H       1  UNL1        0.2951
     48 N          40.4550   -9.9480   -2.7780 N.3     1  UNL1       -0.3229
     49 C          31.5760  -12.6270    1.6020 C.3     1  UNL1        0.0754
     50 O          31.8860  -13.2640    2.8490 O.3     1  UNL1       -0.3907
     51 C          32.7920  -12.7080    0.6820 C.3     1  UNL1        0.1084
     52 O          31.9130  -14.7330   -0.2710 O.3     1  UNL1       -0.4803
     53 C          33.0150  -14.1180    0.1950 C.2     1  UNL1        0.3128
     54 O          34.1010  -14.6730    0.1110 O.2     1  UNL1       -0.2505
     55 C          32.7010  -11.7530   -0.5290 C.3     1  UNL1        0.0799
     56 O          35.6040  -10.6030   -2.8290 O.3     1  UNL1       -0.3413
     57 C          34.0930  -11.6610   -1.2010 C.3     1  UNL1        0.0045
     58 O          37.8720   -9.3670   -3.8400 O.3     1  UNL1       -0.3851
     59 C          34.3090  -10.5270   -2.2100 C.3     1  UNL1        0.0826
     60 O          40.1230   -8.7270   -0.2220 O.3     1  UNL1       -0.3876
     61 C          36.7140  -10.4230   -1.9430 C.3     1  UNL1        0.1875
     62 O          36.5870   -9.2090   -1.2060 O.3     1  UNL1       -0.3431
     63 C          37.9800  -10.3950   -2.8330 C.3     1  UNL1        0.1234
     64 O          27.5700   -3.5050   -5.1840 O.3     1  UNL1       -0.4582
     65 C          39.2200  -10.1240   -1.9710 C.3     1  UNL1        0.0646
     66 O          29.4840   -2.5070   -5.9690 O.2     1  UNL1       -0.2456
     67 C          39.0070   -8.8670   -1.1050 C.3     1  UNL1        0.0987
     68 O          28.9880   -8.8120   -0.8490 O.3     1  UNL1       -0.3913
     69 C          37.6920   -8.9890   -0.3190 C.3     1  UNL1        0.0863
     70 O          30.0090  -11.0820   -0.1570 O.3     1  UNL1       -0.3643
     71 C          37.3950   -7.7230    0.4770 C.3     1  UNL1       -0.0361
     72 O          32.2690  -10.4330   -0.1430 O.3     1  UNL1       -0.3444
     73 C          33.3440  -10.5650   -3.3680 C.2     1  UNL1       -0.0555
     74 C          32.3420   -9.6840   -3.4690 C.2     1  UNL1       -0.0633
     75 C          31.4410   -9.5430   -4.5870 C.2     1  UNL1       -0.0620
     76 C          30.3710   -8.7470   -4.4730 C.2     1  UNL1       -0.0618
     77 C          29.4970   -8.3320   -5.5450 C.2     1  UNL1       -0.0618
     78 C          28.4110   -7.5970   -5.2640 C.2     1  UNL1       -0.0621
     79 C          27.6530   -6.8360   -6.2280 C.2     1  UNL1       -0.0656
     80 C          26.6950   -6.0000   -5.7990 C.2     1  UNL1       -0.0805
     81 C          26.1140   -4.8610   -6.5910 C.3     1  UNL1        0.0026
     82 C          27.0350   -3.6190   -6.5240 C.3     1  UNL1        0.1040
     83 C          26.2770   -2.3470   -6.8770 C.3     1  UNL1       -0.0274
     84 C          28.8630   -3.1080   -5.1040 C.2     1  UNL1        0.3322
     85 C          29.5230   -3.5930   -3.8680 C.2     1  UNL1        0.0225
     86 C          28.9540   -4.4240   -2.9820 C.2     1  UNL1       -0.0553
     87 C          29.6750   -5.0300   -1.8800 C.2     1  UNL1       -0.0654
     88 C          29.1060   -5.9430   -1.0780 C.2     1  UNL1       -0.0816
     89 C          29.8010   -6.6850    0.0400 C.3     1  UNL1       -0.0081
     90 C          30.1490   -8.1420   -0.3360 C.3     1  UNL1        0.0635
     91 C          30.6450   -8.9430    0.8810 C.3     1  UNL1        0.0276
     92 C          31.0280  -10.4150    0.5730 C.3     1  UNL1        0.1723
     93 C          31.2160  -11.1740    1.8860 C.3     1  UNL1        0.0282
@<TRIPOS>BOND
     1    42    83    1
     2    41    81    1
     3     6    79    1
     4    32    82    1
     5    83    45    1
     6    83    82    1
     7    83    33    1
     8    81    82    1
     9    81    31    1
    10    81    80    1
    11     8    77    1
    12    82    64    1
    13    79    80    2
    14    79    78    1
    15    66    84    2
    16    80     5    1
    17    77    78    2
    18    77    76    1
    19    10    75    1
    20    78     7    1
    21    64    84    1
    22    84    85    1
    23    75    76    2
    24    75    74    1
    25    76     9    1
    26    11    73    1
    27    20    58    1
    28    85     2    1
    29    85    86    2
    30    58    63    1
    31    38    48    1
    32    74    73    2
    33    74    12    1
    34    24    63    1
    35    73    59    1
    36    14    48    1
    37     1    86    1
    38    86    87    1
    39    63    65    1
    40    63    61    1
    41    56    59    1
    42    56    61    1
    43    48    65    1
    44    59    21    1
    45    59    57    1
    46    65    25    1
    47    65    67    1
    48    61    23    1
    49    61    62    1
    50    87     3    1
    51    87    88    2
    52    26    67    1
    53    19    57    1
    54    27    68    1
    55    18    55    1
    56     4    88    1
    57    62    69    1
    58    57    55    1
    59    57    39    1
    60    35    90    1
    61    67    69    1
    62    67    60    1
    63    88    89    1
    64    68    90    1
    65    22    60    1
    66    29    70    1
    67    47    52    1
    68    55    72    1
    69    55    51    1
    70    90    89    1
    71    90    91    1
    72    69    28    1
    73    69    71    1
    74    52    53    1
    75    46    71    1
    76    70    92    1
    77    72    92    1
    78    89    43    1
    79    89    34    1
    80    54    53    2
    81    53    51    1
    82    71    40    1
    83    71    30    1
    84    92    91    1
    85    92    93    1
    86    51    17    1
    87    51    49    1
    88    91    44    1
    89    91    36    1
    90    15    49    1
    91    49    93    1
    92    49    50    1
    93    93    37    1
    94    93    13    1
    95    50    16    1
