@<TRIPOS>MOLECULE
91.00532
 93 95 0 0 0
SMALL
GASTEIGER

@<TRIPOS>ATOM
      1 H          29.1660   -5.8050   -4.7440 H       1  UNL1        0.0620
      2 H          31.9550   -4.9740   -3.7060 H       1  UNL1        0.0689
      3 H          30.5630   -5.8180   -1.9680 H       1  UNL1        0.0615
      4 H          27.6120   -6.2380   -2.7170 H       1  UNL1        0.0573
      5 H          34.6880   -5.3220   -3.6320 H       1  UNL1        0.0573
      6 H          34.1840   -8.2810   -2.9680 H       1  UNL1        0.0614
      7 H          34.3380   -5.6690   -1.2740 H       1  UNL1        0.0617
      8 H          33.4630   -8.5320   -0.5790 H       1  UNL1        0.0618
      9 H          33.8440   -5.9300    1.0920 H       1  UNL1        0.0618
     10 H          32.7090   -8.7030    1.7730 H       1  UNL1        0.0617
     11 H          31.8600   -8.8160    4.0660 H       1  UNL1        0.0598
     12 H          33.2980   -6.1650    3.4810 H       1  UNL1        0.0615
     13 H          30.6400   -4.3620    2.5500 H       1  UNL1        0.0342
     14 H          34.3760  -10.9290   10.4720 H       1  UNL1        0.1186
     15 H          28.7930   -3.4340    4.8020 H       1  UNL1        0.0604
     16 H          30.0290   -1.8790    3.6860 H       1  UNL1        0.2098
     17 H          31.5620   -4.7080    4.9740 H       1  UNL1        0.0465
     18 H          28.8620   -5.9680    5.7500 H       1  UNL1        0.0607
     19 H          30.1040   -8.0660    5.9890 H       1  UNL1        0.0319
     20 H          34.7290   -9.1870    6.8580 H       1  UNL1        0.2101
     21 H          32.6950   -6.4220    5.8240 H       1  UNL1        0.0642
     22 H          35.0480   -8.1700   11.9210 H       1  UNL1        0.2100
     23 H          31.8750   -8.0320    8.3480 H       1  UNL1        0.0937
     24 H          33.1050  -10.1930    8.3480 H       1  UNL1        0.0660
     25 H          32.9950   -9.0090   10.5200 H       1  UNL1        0.0512
     26 H          35.6030   -7.6070    9.7180 H       1  UNL1        0.0635
     27 H          29.0560   -4.1670   -0.6210 H       1  UNL1        0.2098
     28 H          32.7630   -6.4420    9.9280 H       1  UNL1        0.0620
     29 H          27.2620   -6.4210    3.4650 H       1  UNL1        0.2128
     30 H          34.5560   -4.8330   10.5460 H       1  UNL1        0.0255
     31 H          35.1890   -7.8130   -5.3250 H       1  UNL1        0.0343
     32 H          33.8150   -6.6530   -7.1850 H       1  UNL1        0.0734
     33 H          32.1820   -7.9030   -4.8980 H       1  UNL1        0.0265
     34 H          29.2440   -7.4420   -0.5840 H       1  UNL1        0.0332
     35 H          27.5160   -5.2540    0.6510 H       1  UNL1        0.0598
     36 H          30.0610   -6.7260    1.5280 H       1  UNL1        0.0342
     37 H          29.0560   -3.5960    2.3900 H       1  UNL1        0.0342
     38 H          35.6460  -10.0830    9.9710 H       1  UNL1        0.1186
     39 H          30.5820   -6.8460    7.1410 H       1  UNL1        0.0319
     40 H          33.8100   -4.4120    8.9920 H       1  UNL1        0.0255
     41 H          35.5510   -6.1320   -5.6700 H       1  UNL1        0.0343
     42 H          33.1320   -8.8140   -6.0880 H       1  UNL1        0.0265
     43 H          27.5110   -7.3040   -0.5850 H       1  UNL1        0.0332
     44 H          28.4520   -7.3550    1.8320 H       1  UNL1        0.0342
     45 H          31.7420   -7.8600   -6.6040 H       1  UNL1        0.0265
     46 H          35.3900   -5.1780    9.0120 H       1  UNL1        0.0255
     47 H          31.5550   -3.4400    8.0830 H       1  UNL1        0.2951
     48 N          34.8190  -10.0150   10.5790 N.3     1  UNL1       -0.3229
     49 C          29.7790   -3.6870    4.3930 C.3     1  UNL1        0.0754
     50 O          30.5210   -2.4680    4.2860 O.3     1  UNL1       -0.3907
     51 C          30.5210   -4.6500    5.3130 C.3     1  UNL1        0.1084
     52 O          31.7140   -3.8270    7.1970 O.3     1  UNL1       -0.4803
     53 C          30.4880   -4.1080    6.7170 C.2     1  UNL1        0.3128
     54 O          29.5000   -3.9600    7.4170 O.2     1  UNL1       -0.2505
     55 C          29.8580   -6.0310    5.2900 C.3     1  UNL1        0.0799
     56 O          32.7060   -8.3800    6.4810 O.3     1  UNL1       -0.3413
     57 C          30.6360   -7.1080    6.0790 C.3     1  UNL1        0.0045
     58 O          34.9150   -9.4330    7.7880 O.3     1  UNL1       -0.3851
     59 C          32.1140   -7.3400    5.6850 C.3     1  UNL1        0.0826
     60 O          34.7040   -7.3330   11.5440 O.3     1  UNL1       -0.3876
     61 C          32.8610   -8.0800    7.8710 C.3     1  UNL1        0.1875
     62 O          33.5520   -6.8480    8.0580 O.3     1  UNL1       -0.3431
     63 C          33.6610   -9.2570    8.4790 C.3     1  UNL1        0.1234
     64 O          32.9180   -5.3750   -5.8470 O.3     1  UNL1       -0.4582
     65 C          33.9400   -8.9890    9.9630 C.3     1  UNL1        0.0646
     66 O          30.8280   -5.4280   -6.7890 O.2     1  UNL1       -0.2456
     67 C          34.5910   -7.6030   10.1430 C.3     1  UNL1        0.0987
     68 O          29.4090   -4.6310    0.1600 O.3     1  UNL1       -0.3913
     69 C          33.7440   -6.5290    9.4420 C.3     1  UNL1        0.0863
     70 O          27.6390   -5.5250    3.4820 O.3     1  UNL1       -0.3643
     71 C          34.4150   -5.1610    9.5120 C.3     1  UNL1       -0.0361
     72 O          29.6690   -6.5260    3.9650 O.3     1  UNL1       -0.3444
     73 C          32.2780   -7.8320    4.2680 C.2     1  UNL1       -0.0555
     74 C          32.8890   -7.1540    3.2820 C.2     1  UNL1       -0.0633
     75 C          33.0330   -7.6780    1.9390 C.2     1  UNL1       -0.0620
     76 C          33.5360   -6.9600    0.9230 C.2     1  UNL1       -0.0618
     77 C          33.6980   -7.4820   -0.4210 C.2     1  UNL1       -0.0618
     78 C          34.1190   -6.7220   -1.4440 C.2     1  UNL1       -0.0621
     79 C          34.3010   -7.2140   -2.7950 C.2     1  UNL1       -0.0656
     80 C          34.5870   -6.3910   -3.8160 C.2     1  UNL1       -0.0805
     81 C          34.7800   -6.7970   -5.2590 C.3     1  UNL1        0.0026
     82 C          33.5080   -6.6680   -6.1330 C.3     1  UNL1        0.1040
     83 C          32.5910   -7.8780   -5.9130 C.3     1  UNL1       -0.0274
     84 C          31.5670   -5.2910   -5.8320 C.2     1  UNL1        0.3322
     85 C          31.1640   -5.1860   -4.4160 C.2     1  UNL1        0.0225
     86 C          29.9390   -5.5570   -4.0190 C.2     1  UNL1       -0.0553
     87 C          29.6880   -5.8220   -2.6240 C.2     1  UNL1       -0.0654
     88 C          28.5070   -6.1850   -2.1020 C.2     1  UNL1       -0.0816
     89 C          28.4280   -6.7120   -0.6930 C.3     1  UNL1       -0.0081
     90 C          28.5040   -5.6900    0.4670 C.3     1  UNL1        0.0635
     91 C          29.0210   -6.4230    1.7120 C.3     1  UNL1        0.0276
     92 C          28.9850   -5.6680    3.0520 C.3     1  UNL1        0.1723
     93 C          29.6420   -4.2930    3.0020 C.3     1  UNL1        0.0282
@<TRIPOS>BOND
     1    32    82    1
     2    66    84    2
     3    45    83    1
     4    82    83    1
     5    82    64    1
     6    82    81    1
     7    42    83    1
     8    83    33    1
     9    64    84    1
    10    84    85    1
    11    41    81    1
    12    31    81    1
    13    81    80    1
    14     1    86    1
    15    85    86    2
    16    85     2    1
    17    86    87    1
    18    80     5    1
    19    80    79    2
    20     6    79    1
    21    79    78    1
    22     4    88    1
    23    87    88    2
    24    87     3    1
    25    88    89    1
    26    78     7    1
    27    78    77    2
    28    89    43    1
    29    89    34    1
    30    89    90    1
    31    27    68    1
    32     8    77    1
    33    77    76    1
    34    68    90    1
    35    90    35    1
    36    90    91    1
    37    76     9    1
    38    76    75    2
    39    36    91    1
    40    91    44    1
    41    91    92    1
    42    10    75    1
    43    75    74    1
    44    37    93    1
    45    13    93    1
    46    93    92    1
    47    93    49    1
    48    92    70    1
    49    92    72    1
    50    74    12    1
    51    74    73    2
    52    29    70    1
    53    16    50    1
    54    72    55    1
    55    11    73    1
    56    73    59    1
    57    50    49    1
    58    49    15    1
    59    49    51    1
    60    17    51    1
    61    55    51    1
    62    55    18    1
    63    55    57    1
    64    51    53    1
    65    59    21    1
    66    59    57    1
    67    59    56    1
    68    19    57    1
    69    57    39    1
    70    56    61    1
    71    53    52    1
    72    53    54    2
    73    20    58    1
    74    52    47    1
    75    58    63    1
    76    61    62    1
    77    61    23    1
    78    61    63    1
    79    62    69    1
    80    24    63    1
    81    63    65    1
    82    40    71    1
    83    46    71    1
    84    69    71    1
    85    69    28    1
    86    69    67    1
    87    71    30    1
    88    26    67    1
    89    65    67    1
    90    65    25    1
    91    65    48    1
    92    38    48    1
    93    67    60    1
    94    14    48    1
    95    60    22    1
