@<TRIPOS>MOLECULE
67.89188
 93 95 0 0 0
SMALL
GASTEIGER

@<TRIPOS>ATOM
      1 H          32.8010   -9.6480   -1.9360 H       1  UNL1        0.0620
      2 H          30.3960  -11.5520   -2.2790 H       1  UNL1        0.0689
      3 H          29.7220   -9.2310   -1.6390 H       1  UNL1        0.0615
      4 H          32.1500   -7.3880   -1.2330 H       1  UNL1        0.0573
      5 H          32.2970  -15.3630   -0.0120 H       1  UNL1        0.0573
      6 H          33.9330  -12.7670    0.1650 H       1  UNL1        0.0614
      7 H          31.8100  -14.0340    2.0620 H       1  UNL1        0.0617
      8 H          33.2860  -11.3370    1.9610 H       1  UNL1        0.0618
      9 H          31.1790  -12.5000    3.9390 H       1  UNL1        0.0618
     10 H          32.5410   -9.7620    3.6010 H       1  UNL1        0.0617
     11 H          31.7290   -8.1000    5.0950 H       1  UNL1        0.0598
     12 H          30.4340  -10.8270    5.6340 H       1  UNL1        0.0615
     13 H          31.9440   -5.3990    3.2470 H       1  UNL1        0.0342
     14 H          27.5430  -11.8580   11.2320 H       1  UNL1        0.1186
     15 H          29.8920   -3.5220    4.5110 H       1  UNL1        0.0604
     16 H          32.0360   -2.8080    4.2300 H       1  UNL1        0.2098
     17 H          31.4080   -5.8140    5.8420 H       1  UNL1        0.0465
     18 H          28.4290   -5.6950    5.0750 H       1  UNL1        0.0607
     19 H          28.3440   -8.0770    5.6960 H       1  UNL1        0.0319
     20 H          30.6460  -10.8050    8.8870 H       1  UNL1        0.2101
     21 H          30.9090   -7.6150    7.3150 H       1  UNL1        0.0642
     22 H          28.1760   -9.4480   13.2170 H       1  UNL1        0.2100
     23 H          28.1780   -8.4710    8.5250 H       1  UNL1        0.0937
     24 H          28.2230  -10.9220    8.9210 H       1  UNL1        0.0660
     25 H          27.2700   -9.5570   10.7550 H       1  UNL1        0.0512
     26 H          30.1110   -9.3900   11.9010 H       1  UNL1        0.0635
     27 H          31.6910   -4.6860   -0.5290 H       1  UNL1        0.2098
     28 H          28.4210   -7.1930   10.5640 H       1  UNL1        0.0620
     29 H          27.9880   -5.8270    2.4300 H       1  UNL1        0.2128
     30 H          29.9020   -6.3480   12.3760 H       1  UNL1        0.0255
     31 H          34.1680  -15.7470   -1.6820 H       1  UNL1        0.0343
     32 H          33.3640  -14.3860   -3.7450 H       1  UNL1        0.0734
     33 H          31.1850  -15.9140   -2.2290 H       1  UNL1        0.0265
     34 H          29.0770   -6.9980   -1.0050 H       1  UNL1        0.0332
     35 H          29.5850   -4.9920    0.3290 H       1  UNL1        0.0598
     36 H          31.0740   -7.2700    1.7330 H       1  UNL1        0.0342
     37 H          31.0610   -4.0830    2.4740 H       1  UNL1        0.0342
     38 H          29.0550  -11.6420   11.7280 H       1  UNL1        0.1186
     39 H          28.5300   -6.9600    7.0250 H       1  UNL1        0.0319
     40 H          30.4750   -5.8440   10.7720 H       1  UNL1        0.0255
     41 H          34.5320  -14.0400   -1.6960 H       1  UNL1        0.0343
     42 H          32.4540  -16.6610   -3.2300 H       1  UNL1        0.0265
     43 H          30.1650   -5.8910   -1.8360 H       1  UNL1        0.0332
     44 H          29.3470   -7.3800    1.4190 H       1  UNL1        0.0342
     45 H          31.2350  -15.5910   -3.9530 H       1  UNL1        0.0265
     46 H          31.2920   -7.1550   11.6090 H       1  UNL1        0.0255
     47 H          30.4880   -4.3070    8.6960 H       1  UNL1        0.2951
     48 N          28.1330  -11.1870   11.7270 N.3     1  UNL1       -0.3229
     49 C          30.7300   -4.2270    4.5770 C.3     1  UNL1        0.0754
     50 O          31.8920   -3.4690    4.9310 O.3     1  UNL1       -0.3907
     51 C          30.4690   -5.2800    5.6520 C.3     1  UNL1        0.1084
     52 O          30.8600   -4.8210    7.9500 O.3     1  UNL1       -0.4803
     53 C          30.0280   -4.5940    6.9170 C.2     1  UNL1        0.3128
     54 O          29.0100   -3.9380    7.0710 O.2     1  UNL1       -0.2505
     55 C          29.3740   -6.2440    5.1890 C.3     1  UNL1        0.0799
     56 O          29.7740   -9.3250    7.5150 O.3     1  UNL1       -0.3413
     57 C          29.0630   -7.3940    6.1710 C.3     1  UNL1        0.0045
     58 O          30.1140  -11.0050    9.6850 O.3     1  UNL1       -0.3851
     59 C          30.2420   -8.2350    6.7060 C.3     1  UNL1        0.0826
     60 O          28.4770   -8.5890   12.8520 O.3     1  UNL1       -0.3876
     61 C          29.1380   -8.9530    8.7400 C.3     1  UNL1        0.1875
     62 O          29.9630   -8.0730    9.5010 O.3     1  UNL1       -0.3431
     63 C          28.8830  -10.2730    9.5080 C.3     1  UNL1        0.1234
     64 O          31.8870  -13.4070   -2.6570 O.3     1  UNL1       -0.4582
     65 C          28.2770   -9.9730   10.8840 C.3     1  UNL1        0.0646
     66 O          33.6390  -11.9230   -2.8380 O.2     1  UNL1       -0.2456
     67 C          29.1440   -8.9430   11.6370 C.3     1  UNL1        0.0987
     68 O          31.6140   -5.2010    0.2940 O.3     1  UNL1       -0.3913
     69 C          29.3730   -7.7060   10.7540 C.3     1  UNL1        0.0863
     70 O          28.6450   -5.1550    2.6810 O.3     1  UNL1       -0.3643
     71 C          30.3090   -6.7070   11.4250 C.3     1  UNL1       -0.0361
     72 O          29.6870   -6.8140    3.9090 O.3     1  UNL1       -0.3444
     73 C          31.0810   -8.8170    5.5950 C.2     1  UNL1       -0.0555
     74 C          31.0820  -10.0900    5.1650 C.2     1  UNL1       -0.0633
     75 C          31.8900  -10.5130    4.0460 C.2     1  UNL1       -0.0620
     76 C          31.8390  -11.7450    3.5180 C.2     1  UNL1       -0.0618
     77 C          32.6110  -12.0990    2.3490 C.2     1  UNL1       -0.0618
     78 C          32.4970  -13.2710    1.7070 C.2     1  UNL1       -0.0621
     79 C          33.2230  -13.5300    0.4870 C.2     1  UNL1       -0.0656
     80 C          33.0160  -14.6000   -0.2950 C.2     1  UNL1       -0.0805
     81 C          33.7030  -14.7550   -1.6290 C.3     1  UNL1        0.0026
     82 C          32.7650  -14.5410   -2.8380 C.3     1  UNL1        0.1040
     83 C          31.8650  -15.7520   -3.0720 C.3     1  UNL1       -0.0274
     84 C          32.4660  -12.1820   -2.6330 C.2     1  UNL1        0.3322
     85 C          31.4200  -11.2020   -2.2720 C.2     1  UNL1        0.0225
     86 C          31.7530   -9.9460   -1.9390 C.2     1  UNL1       -0.0553
     87 C          30.7710   -8.9420   -1.5950 C.2     1  UNL1       -0.0654
     88 C          31.1020   -7.6840   -1.2680 C.2     1  UNL1       -0.0816
     89 C          30.0970   -6.5950   -0.9970 C.3     1  UNL1       -0.0081
     90 C          30.3190   -5.8060    0.3100 C.3     1  UNL1        0.0635
     91 C          30.1700   -6.6690    1.5710 C.3     1  UNL1        0.0276
     92 C          29.8650   -5.8660    2.8560 C.3     1  UNL1        0.1723
     93 C          30.9760   -4.8820    3.2200 C.3     1  UNL1        0.0282
@<TRIPOS>BOND
     1    45    83    1
     2    32    82    1
     3    42    83    1
     4    83    82    1
     5    83    33    1
     6    66    84    2
     7    82    64    1
     8    82    81    1
     9    64    84    1
    10    84    85    1
    11     2    85    1
    12    85    86    2
    13    86     1    1
    14    86    87    1
    15    43    89    1
    16    41    81    1
    17    31    81    1
    18     3    87    1
    19    81    80    1
    20    87    88    2
    21    88     4    1
    22    88    89    1
    23    34    89    1
    24    89    90    1
    25    27    68    1
    26    80     5    1
    27    80    79    2
    28     6    79    1
    29    68    90    1
    30    90    35    1
    31    90    91    1
    32    79    78    1
    33    44    91    1
    34    91    36    1
    35    91    92    1
    36    78     7    1
    37    78    77    2
    38     8    77    1
    39    77    76    1
    40    29    70    1
    41    37    93    1
    42    70    92    1
    43    92    93    1
    44    92    72    1
    45    93    13    1
    46    93    49    1
    47    76     9    1
    48    76    75    2
    49    10    75    1
    50    72    55    1
    51    75    74    1
    52    16    50    1
    53    15    49    1
    54    49    50    1
    55    49    51    1
    56    18    55    1
    57    11    73    1
    58    74    73    2
    59    74    12    1
    60    55    51    1
    61    55    57    1
    62    73    59    1
    63    51    17    1
    64    51    53    1
    65    19    57    1
    66    57    59    1
    67    57    39    1
    68    59    21    1
    69    59    56    1
    70    53    54    2
    71    53    52    1
    72    56    61    1
    73    52    47    1
    74    23    61    1
    75    61    62    1
    76    61    63    1
    77    20    58    1
    78    24    63    1
    79    62    69    1
    80    63    58    1
    81    63    65    1
    82    28    69    1
    83    69    71    1
    84    69    67    1
    85    25    65    1
    86    40    71    1
    87    65    67    1
    88    65    48    1
    89    14    48    1
    90    71    46    1
    91    71    30    1
    92    67    26    1
    93    67    60    1
    94    48    38    1
    95    60    22    1
