@<TRIPOS>MOLECULE
65.49250
 93 95 0 0 0
SMALL
GASTEIGER

@<TRIPOS>ATOM
      1 H          30.1180   -5.0010   -4.3260 H       1  UNL1        0.0620
      2 H          33.1850   -5.3000   -4.1240 H       1  UNL1        0.0689
      3 H          31.9710   -6.5410   -2.3520 H       1  UNL1        0.0615
      4 H          28.9660   -5.8810   -2.2950 H       1  UNL1        0.0573
      5 H          28.6400   -2.2520   -6.2030 H       1  UNL1        0.0573
      6 H          30.8820   -1.4430   -4.2550 H       1  UNL1        0.0614
      7 H          27.9320   -2.3720   -3.8910 H       1  UNL1        0.0617
      8 H          30.1390   -1.5860   -1.8950 H       1  UNL1        0.0618
      9 H          27.3110   -2.8530   -1.6230 H       1  UNL1        0.0618
     10 H          29.3420   -1.8720    0.4710 H       1  UNL1        0.0617
     11 H          28.4010   -2.2190    2.7960 H       1  UNL1        0.0598
     12 H          26.6940   -3.5030    0.5920 H       1  UNL1        0.0615
     13 H          29.3060   -7.9700    4.3670 H       1  UNL1        0.0342
     14 H          21.3520   -0.8660    5.5590 H       1  UNL1        0.1186
     15 H          31.0450   -5.8630    5.7320 H       1  UNL1        0.0604
     16 H          30.9860   -7.8690    6.6890 H       1  UNL1        0.2098
     17 H          28.0290   -6.2280    5.9720 H       1  UNL1        0.0465
     18 H          29.4010   -3.9740    4.3840 H       1  UNL1        0.0607
     19 H          27.3510   -3.1760    5.2770 H       1  UNL1        0.0319
     20 H          24.2520   -1.0710    2.7640 H       1  UNL1        0.2101
     21 H          26.2420   -4.3970    2.7260 H       1  UNL1        0.0642
     22 H          19.7770   -3.2460    4.1560 H       1  UNL1        0.2100
     23 H          24.5000   -3.8250    4.7670 H       1  UNL1        0.0937
     24 H          23.8330   -1.4500    5.1200 H       1  UNL1        0.0660
     25 H          22.0410   -3.1240    5.4720 H       1  UNL1        0.0512
     26 H          21.3700   -2.8020    2.4960 H       1  UNL1        0.0635
     27 H          30.6680   -4.6570   -0.1990 H       1  UNL1        0.2098
     28 H          22.6770   -5.1780    3.9510 H       1  UNL1        0.0620
     29 H          31.1000   -5.0570    2.2310 H       1  UNL1        0.2128
     30 H          21.2190   -5.8600    2.0550 H       1  UNL1        0.0255
     31 H          31.6250   -1.4840   -6.5380 H       1  UNL1        0.0343
     32 H          29.9860   -3.6350   -7.9870 H       1  UNL1        0.0734
     33 H          32.9360   -2.9090   -8.2970 H       1  UNL1        0.0265
     34 H          30.8420   -7.6610   -0.6080 H       1  UNL1        0.0332
     35 H          28.7980   -5.6750    0.5570 H       1  UNL1        0.0598
     36 H          30.8070   -7.6360    1.7780 H       1  UNL1        0.0342
     37 H          31.0520   -7.7710    4.2390 H       1  UNL1        0.0342
     38 H          21.1290   -0.8020    3.9700 H       1  UNL1        0.1186
     39 H          26.5400   -4.6990    5.0370 H       1  UNL1        0.0319
     40 H          22.9380   -6.0970    1.6750 H       1  UNL1        0.0255
     41 H          30.3710   -1.2080   -7.7420 H       1  UNL1        0.0343
     42 H          31.6510   -2.7470   -9.4960 H       1  UNL1        0.0265
     43 H          29.0930   -7.8200   -0.7210 H       1  UNL1        0.0332
     44 H          29.0380   -7.7740    1.8580 H       1  UNL1        0.0342
     45 H          32.1760   -4.3570   -8.9510 H       1  UNL1        0.0265
     46 H          22.0810   -4.7260    0.9880 H       1  UNL1        0.0255
     47 H          30.0590   -3.4400    7.8780 H       1  UNL1        0.2951
     48 N          21.0350   -1.4360    4.7730 N.3     1  UNL1       -0.3229
     49 C          30.1230   -6.4510    5.6550 C.3     1  UNL1        0.0754
     50 O          30.1340   -7.3990    6.7290 O.3     1  UNL1       -0.3907
     51 C          28.8840   -5.5640    5.7800 C.3     1  UNL1        0.1084
     52 O          30.1650   -4.0010    7.0810 O.3     1  UNL1       -0.4803
     53 C          28.9860   -4.6360    6.9650 C.2     1  UNL1        0.3128
     54 O          28.0710   -4.3630    7.7270 O.2     1  UNL1       -0.2505
     55 C          28.6290   -4.7460    4.5000 C.3     1  UNL1        0.0799
     56 O          25.6260   -2.5780    3.5390 O.3     1  UNL1       -0.3413
     57 C          27.2720   -4.0200    4.5790 C.3     1  UNL1        0.0045
     58 O          23.3620   -1.0480    3.1750 O.3     1  UNL1       -0.3851
     59 C          26.6590   -3.5310    3.2580 C.3     1  UNL1        0.0826
     60 O          20.2750   -3.9920    3.7610 O.3     1  UNL1       -0.3876
     61 C          24.3730   -3.1700    3.8980 C.3     1  UNL1        0.1875
     62 O          23.8500   -3.9190    2.8000 O.3     1  UNL1       -0.3431
     63 C          23.4310   -1.9970    4.2600 C.3     1  UNL1        0.1234
     64 O          31.1850   -4.2760   -6.4880 O.3     1  UNL1       -0.4582
     65 C          22.0210   -2.5250    4.5530 C.3     1  UNL1        0.0646
     66 O          33.2370   -3.4050   -5.9120 O.2     1  UNL1       -0.2456
     67 C          21.5310   -3.4140    3.3930 C.3     1  UNL1        0.0987
     68 O          30.8030   -5.2190    0.5900 O.3     1  UNL1       -0.3913
     69 C          22.5740   -4.5020    3.0920 C.3     1  UNL1        0.0863
     70 O          30.9870   -5.3430    3.1630 O.3     1  UNL1       -0.3643
     71 C          22.1700   -5.3460    1.8870 C.3     1  UNL1       -0.0361
     72 O          28.6550   -5.5910    3.3380 O.3     1  UNL1       -0.3444
     73 C          27.6160   -2.8160    2.3430 C.2     1  UNL1       -0.0555
     74 C          27.5160   -2.9210    1.0090 C.2     1  UNL1       -0.0633
     75 C          28.4420   -2.3340    0.0720 C.2     1  UNL1       -0.0620
     76 C          28.2270   -2.3960   -1.2500 C.2     1  UNL1       -0.0618
     77 C          29.1700   -1.9380   -2.2430 C.2     1  UNL1       -0.0618
     78 C          28.9030   -2.0120   -3.5550 C.2     1  UNL1       -0.0621
     79 C          29.8820   -1.7320   -4.5770 C.2     1  UNL1       -0.0656
     80 C          29.6300   -1.9380   -5.8790 C.2     1  UNL1       -0.0805
     81 C          30.6930   -1.8910   -6.9470 C.3     1  UNL1        0.0026
     82 C          30.9270   -3.3020   -7.5290 C.3     1  UNL1        0.1040
     83 C          31.9820   -3.3290   -8.6300 C.3     1  UNL1       -0.0274
     84 C          32.2870   -4.1460   -5.7160 C.2     1  UNL1        0.3322
     85 C          32.2190   -5.0270   -4.5330 C.2     1  UNL1        0.0225
     86 C          31.0670   -5.3520   -3.9260 C.2     1  UNL1       -0.0553
     87 C          31.0290   -6.1210   -2.7020 C.2     1  UNL1       -0.0654
     88 C          29.9150   -6.3070   -1.9750 C.2     1  UNL1       -0.0816
     89 C          29.9090   -7.0880   -0.6830 C.3     1  UNL1       -0.0081
     90 C          29.7580   -6.2010    0.5700 C.3     1  UNL1        0.0635
     91 C          29.8730   -7.0620    1.8430 C.3     1  UNL1        0.0276
     92 C          29.9040   -6.2640    3.1620 C.3     1  UNL1        0.1723
     93 C          30.1080   -7.2200    4.3370 C.3     1  UNL1        0.0282
@<TRIPOS>BOND
     1    42    83    1
     2    45    83    1
     3    83    33    1
     4    83    82    1
     5    32    82    1
     6    41    81    1
     7    82    81    1
     8    82    64    1
     9    81    31    1
    10    81    80    1
    11    64    84    1
    12     5    80    1
    13    66    84    2
    14    80    79    2
    15    84    85    1
    16    79     6    1
    17    79    78    1
    18    85     2    1
    19    85    86    2
    20     1    86    1
    21    86    87    1
    22     7    78    1
    23    78    77    2
    24    87     3    1
    25    87    88    2
    26     4    88    1
    27    77     8    1
    28    77    76    1
    29    88    89    1
    30     9    76    1
    31    76    75    2
    32    43    89    1
    33    89    34    1
    34    89    90    1
    35    27    68    1
    36    75    10    1
    37    75    74    1
    38    35    90    1
    39    90    68    1
    40    90    91    1
    41    12    74    1
    42    46    71    1
    43    74    73    2
    44    40    71    1
    45    36    91    1
    46    91    44    1
    47    91    92    1
    48    71    30    1
    49    71    69    1
    50    29    70    1
    51    73    11    1
    52    73    59    1
    53    26    67    1
    54    21    59    1
    55    20    58    1
    56    62    69    1
    57    62    61    1
    58    69    67    1
    59    69    28    1
    60    92    70    1
    61    92    72    1
    62    92    93    1
    63    58    63    1
    64    59    56    1
    65    59    57    1
    66    72    55    1
    67    67    60    1
    68    67    65    1
    69    56    61    1
    70    60    22    1
    71    61    63    1
    72    61    23    1
    73    38    48    1
    74    37    93    1
    75    63    65    1
    76    63    24    1
    77    93    13    1
    78    93    49    1
    79    18    55    1
    80    55    57    1
    81    55    51    1
    82    65    48    1
    83    65    25    1
    84    57    39    1
    85    57    19    1
    86    48    14    1
    87    49    15    1
    88    49    51    1
    89    49    50    1
    90    51    17    1
    91    51    53    1
    92    16    50    1
    93    53    52    1
    94    53    54    2
    95    52    47    1
