@<TRIPOS>MOLECULE
67.81967
 93 95 0 0 0
SMALL
GASTEIGER

@<TRIPOS>ATOM
      1 H          29.2530   -5.2490   -5.1840 H       1  UNL1        0.0620
      2 H          32.2610   -5.8190   -5.5860 H       1  UNL1        0.0689
      3 H          31.4560   -6.4920   -3.3600 H       1  UNL1        0.0615
      4 H          28.5020   -5.8080   -2.8520 H       1  UNL1        0.0573
      5 H          33.2820   -1.4630   -7.7520 H       1  UNL1        0.0573
      6 H          30.5020   -2.1030   -6.6140 H       1  UNL1        0.0614
      7 H          32.8280   -0.4490   -5.3850 H       1  UNL1        0.0617
      8 H          30.4870   -2.1080   -4.2760 H       1  UNL1        0.0618
      9 H          32.3020   -0.0420   -2.8390 H       1  UNL1        0.0618
     10 H          30.5280   -2.4010   -1.9730 H       1  UNL1        0.0617
     11 H          30.4580   -2.8120    0.3020 H       1  UNL1        0.0598
     12 H          31.7140   -0.0770   -0.2910 H       1  UNL1        0.0615
     13 H          25.9840   -4.1450    1.1570 H       1  UNL1        0.0342
     14 H          33.2790   -4.8640    6.7150 H       1  UNL1        0.1186
     15 H          26.6650   -4.4100    4.1270 H       1  UNL1        0.0604
     16 H          24.4950   -4.4050    3.5650 H       1  UNL1        0.2098
     17 H          26.5930   -1.8330    2.4810 H       1  UNL1        0.0465
     18 H          29.1350   -3.2650    3.4480 H       1  UNL1        0.0607
     19 H          29.2160   -0.7760    3.3320 H       1  UNL1        0.0319
     20 H          33.4840   -3.2340    3.0220 H       1  UNL1        0.2101
     21 H          31.1870   -0.4440    2.1030 H       1  UNL1        0.0642
     22 H          34.1120   -2.0900    8.0100 H       1  UNL1        0.2100
     23 H          30.7470   -1.9640    4.6020 H       1  UNL1        0.0937
     24 H          31.9120   -4.1640    4.6280 H       1  UNL1        0.0660
     25 H          31.9620   -2.9100    6.7620 H       1  UNL1        0.0512
     26 H          34.5520   -1.6070    5.7580 H       1  UNL1        0.0635
     27 H          31.2630   -6.4470    0.7690 H       1  UNL1        0.2098
     28 H          31.7520   -0.3740    6.0940 H       1  UNL1        0.0620
     29 H          29.3840   -5.9690    2.3350 H       1  UNL1        0.2128
     30 H          33.5940    1.2260    6.5720 H       1  UNL1        0.0255
     31 H          31.9980   -2.0400   -9.8290 H       1  UNL1        0.0343
     32 H          31.6330   -4.6080   -9.7140 H       1  UNL1        0.0734
     33 H          34.3770   -3.6150   -8.7820 H       1  UNL1        0.0265
     34 H          30.7320   -7.2740   -1.2780 H       1  UNL1        0.0332
     35 H          30.0990   -4.9020   -0.3210 H       1  UNL1        0.0598
     36 H          27.6660   -6.5900    0.4590 H       1  UNL1        0.0342
     37 H          26.0200   -5.6220    2.1150 H       1  UNL1        0.0342
     38 H          34.5380   -4.0880    6.0860 H       1  UNL1        0.1186
     39 H          28.6920   -0.8180    1.6580 H       1  UNL1        0.0319
     40 H          32.7760    1.6100    5.0430 H       1  UNL1        0.0255
     41 H          30.6440   -2.6030   -8.8840 H       1  UNL1        0.0343
     42 H          33.8060   -3.6200  -10.4690 H       1  UNL1        0.0265
     43 H          29.0370   -7.6490   -1.1800 H       1  UNL1        0.0332
     44 H          27.6330   -5.0880   -0.4890 H       1  UNL1        0.0342
     45 H          34.0280   -5.1410   -9.5780 H       1  UNL1        0.0265
     46 H          34.3470    0.8220    5.0110 H       1  UNL1        0.0255
     47 H          26.4710   -0.5040    5.5780 H       1  UNL1        0.2951
     48 N          33.7620   -3.9650    6.7490 N.3     1  UNL1       -0.3229
     49 C          26.3410   -3.8280    3.2550 C.3     1  UNL1        0.0754
     50 O          24.9470   -3.5520    3.4310 O.3     1  UNL1       -0.3907
     51 C          27.1140   -2.5110    3.1700 C.3     1  UNL1        0.1084
     52 O          26.3910   -0.7820    4.6430 O.3     1  UNL1       -0.4803
     53 C          27.1550   -1.8870    4.5410 C.2     1  UNL1        0.3128
     54 O          27.8260   -2.2640    5.4890 O.2     1  UNL1       -0.2505
     55 C          28.5580   -2.7330    2.6820 C.3     1  UNL1        0.0799
     56 O          31.5020   -2.3980    2.7100 O.3     1  UNL1       -0.3413
     57 C          29.2590   -1.3770    2.4150 C.3     1  UNL1        0.0045
     58 O          33.7110   -3.4840    3.9420 O.3     1  UNL1       -0.3851
     59 C          30.7410   -1.4390    1.9790 C.3     1  UNL1        0.0826
     60 O          33.7810   -1.2510    7.6260 O.3     1  UNL1       -0.3876
     61 C          31.7090   -2.0640    4.0870 C.3     1  UNL1        0.1875
     62 O          32.4400   -0.8440    4.1980 O.3     1  UNL1       -0.3431
     63 C          32.5030   -3.2440    4.6960 C.3     1  UNL1        0.1234
     64 O          32.2260   -4.7240   -7.7260 O.3     1  UNL1       -0.4582
     65 C          32.8730   -2.9340    6.1520 C.3     1  UNL1        0.0646
     66 O          29.9230   -4.7630   -7.6730 O.2     1  UNL1       -0.2456
     67 C          33.5690   -1.5610    6.2460 C.3     1  UNL1        0.0987
     68 O          30.3170   -6.4400    1.0100 O.3     1  UNL1       -0.3913
     69 C          32.7060   -0.4900    5.5620 C.3     1  UNL1        0.0863
     70 O          28.5980   -5.5220    2.7200 O.3     1  UNL1       -0.3643
     71 C          33.3980    0.8690    5.5570 C.3     1  UNL1       -0.0361
     72 O          28.5670   -3.5260    1.4860 O.3     1  UNL1       -0.3444
     73 C          30.8430   -1.8250    0.5330 C.2     1  UNL1       -0.0555
     74 C          31.2990   -1.0640   -0.4740 C.2     1  UNL1       -0.0633
     75 C          31.1480   -1.5140   -1.8370 C.2     1  UNL1       -0.0620
     76 C          31.6580   -0.9130   -2.9210 C.2     1  UNL1       -0.0618
     77 C          31.3240   -1.4090   -4.2360 C.2     1  UNL1       -0.0618
     78 C          31.9580   -1.0990   -5.3760 C.2     1  UNL1       -0.0621
     79 C          31.5110   -1.6870   -6.6160 C.2     1  UNL1       -0.0656
     80 C          32.2600   -1.8280   -7.7180 C.2     1  UNL1       -0.0805
     81 C          31.7410   -2.5890   -8.9140 C.3     1  UNL1        0.0026
     82 C          32.2520   -4.0460   -9.0030 C.3     1  UNL1        0.1040
     83 C          33.6970   -4.1000   -9.4910 C.3     1  UNL1       -0.0274
     84 C          31.0140   -4.9760   -7.1750 C.2     1  UNL1        0.3322
     85 C          31.2480   -5.5120   -5.8160 C.2     1  UNL1        0.0225
     86 C          30.2540   -5.5830   -4.9170 C.2     1  UNL1       -0.0553
     87 C          30.4610   -6.1080   -3.5850 C.2     1  UNL1       -0.0654
     88 C          29.5050   -6.1740   -2.6430 C.2     1  UNL1       -0.0816
     89 C          29.7360   -6.8110   -1.2980 C.3     1  UNL1       -0.0081
     90 C          29.6110   -5.8550   -0.0960 C.3     1  UNL1        0.0635
     91 C          28.1490   -5.6130    0.3240 C.3     1  UNL1        0.0276
     92 C          27.9890   -4.8210    1.6430 C.3     1  UNL1        0.1723
     93 C          26.5090   -4.6500    1.9790 C.3     1  UNL1        0.0282
@<TRIPOS>BOND
     1    42    83    1
     2    31    81    1
     3    32    82    1
     4    45    83    1
     5    83    82    1
     6    83    33    1
     7    82    81    1
     8    82    64    1
     9    81    41    1
    10    81    80    1
    11     5    80    1
    12    64    84    1
    13    80    79    2
    14    66    84    2
    15    84    85    1
    16    79     6    1
    17    79    78    1
    18    85     2    1
    19    85    86    2
    20     7    78    1
    21    78    77    2
    22     1    86    1
    23    86    87    1
    24     8    77    1
    25    77    76    1
    26    87     3    1
    27    87    88    2
    28    76     9    1
    29    76    75    2
    30     4    88    1
    31    88    89    1
    32    10    75    1
    33    75    74    1
    34    89    34    1
    35    89    43    1
    36    89    90    1
    37    44    91    1
    38    74    12    1
    39    74    73    2
    40    35    90    1
    41    90    91    1
    42    90    68    1
    43    11    73    1
    44    91    36    1
    45    91    92    1
    46    73    59    1
    47    27    68    1
    48    13    93    1
    49    72    92    1
    50    72    55    1
    51    92    93    1
    52    92    70    1
    53    39    57    1
    54    93    37    1
    55    93    49    1
    56    59    21    1
    57    59    57    1
    58    59    56    1
    59    29    70    1
    60    57    55    1
    61    57    19    1
    62    17    51    1
    63    55    51    1
    64    55    18    1
    65    56    61    1
    66    20    58    1
    67    51    49    1
    68    51    53    1
    69    49    50    1
    70    49    15    1
    71    50    16    1
    72    58    63    1
    73    61    62    1
    74    61    23    1
    75    61    63    1
    76    62    69    1
    77    53    52    1
    78    53    54    2
    79    24    63    1
    80    52    47    1
    81    63    65    1
    82    46    71    1
    83    40    71    1
    84    71    69    1
    85    71    30    1
    86    69    28    1
    87    69    67    1
    88    26    67    1
    89    38    48    1
    90    65    67    1
    91    65    48    1
    92    65    25    1
    93    67    60    1
    94    14    48    1
    95    60    22    1
