@<TRIPOS>MOLECULE
72.66591
 93 95 0 0 0
SMALL
GASTEIGER

@<TRIPOS>ATOM
      1 H          30.4220   -4.9800   -5.1400 H       1  UNL1        0.0620
      2 H          32.7250   -6.8310   -6.0460 H       1  UNL1        0.0689
      3 H          31.8430   -7.3720   -3.7360 H       1  UNL1        0.0615
      4 H          29.8700   -5.2180   -2.7650 H       1  UNL1        0.0573
      5 H          32.3230   -2.0210   -6.9760 H       1  UNL1        0.0573
      6 H          34.5640   -3.0810   -5.1530 H       1  UNL1        0.0614
      7 H          31.6750   -2.0490   -4.6260 H       1  UNL1        0.0617
      8 H          33.9090   -3.0930   -2.7860 H       1  UNL1        0.0618
      9 H          30.9050   -2.4190   -2.3480 H       1  UNL1        0.0618
     10 H          33.1620   -3.2530   -0.4320 H       1  UNL1        0.0617
     11 H          32.3330   -3.3550    1.9170 H       1  UNL1        0.0598
     12 H          30.0780   -2.9670   -0.1330 H       1  UNL1        0.0615
     13 H          29.0140   -8.5730    3.1590 H       1  UNL1        0.0342
     14 H          28.4760    1.7050    5.9800 H       1  UNL1        0.1186
     15 H          32.0280   -8.5280    3.6680 H       1  UNL1        0.0604
     16 H          30.8810  -10.0450    4.8160 H       1  UNL1        0.2098
     17 H          29.9160   -6.7220    4.9150 H       1  UNL1        0.0465
     18 H          31.8940   -5.7960    2.7410 H       1  UNL1        0.0607
     19 H          31.2010   -4.0610    4.3310 H       1  UNL1        0.0319
     20 H          29.4720   -0.0590    2.5090 H       1  UNL1        0.2101
     21 H          29.2670   -3.6320    2.0120 H       1  UNL1        0.0642
     22 H          25.5120    0.5420    5.7900 H       1  UNL1        0.2100
     23 H          29.1010   -2.4920    4.8860 H       1  UNL1        0.0937
     24 H          29.9100   -0.1410    4.8860 H       1  UNL1        0.0660
     25 H          27.8540   -0.5700    6.1940 H       1  UNL1        0.0512
     26 H          26.2740    0.0380    3.6350 H       1  UNL1        0.0635
     27 H          29.2210   -5.4590    0.5430 H       1  UNL1        0.2098
     28 H          26.7080   -2.6560    5.0570 H       1  UNL1        0.0620
     29 H          31.6460   -8.4280    0.5190 H       1  UNL1        0.2128
     30 H          24.4790   -2.4550    3.9760 H       1  UNL1        0.0255
     31 H          35.1120   -3.2770   -7.4610 H       1  UNL1        0.0343
     32 H          32.5520   -3.6570   -9.1340 H       1  UNL1        0.0734
     33 H          35.3130   -4.9660   -9.3320 H       1  UNL1        0.0265
     34 H          31.2430   -6.1190   -0.7490 H       1  UNL1        0.0332
     35 H          28.5370   -7.3630   -1.4250 H       1  UNL1        0.0598
     36 H          29.4970   -8.9520    0.1080 H       1  UNL1        0.0342
     37 H          30.2290   -9.6450    2.4670 H       1  UNL1        0.0342
     38 H          27.6680    1.8620    4.6010 H       1  UNL1        0.1186
     39 H          29.5290   -4.5550    4.1980 H       1  UNL1        0.0319
     40 H          25.5290   -3.5870    3.0990 H       1  UNL1        0.0255
     41 H          34.3730   -2.0590   -8.5040 H       1  UNL1        0.0343
     42 H          34.6630   -3.7460  -10.4550 H       1  UNL1        0.0265
     43 H          31.1130   -7.7320   -1.4850 H       1  UNL1        0.0332
     44 H          28.2600   -7.9730    0.9160 H       1  UNL1        0.0342
     45 H          33.9100   -5.3520  -10.3180 H       1  UNL1        0.0265
     46 H          25.2630   -1.9750    2.4520 H       1  UNL1        0.0255
     47 H          32.4240   -5.7430    6.9280 H       1  UNL1        0.2951
     48 N          27.6250    1.3870    5.5120 N.3     1  UNL1       -0.3229
     49 C          30.9940   -8.2900    3.9470 C.3     1  UNL1        0.0754
     50 O          30.6520   -9.1290    5.0560 O.3     1  UNL1       -0.3907
     51 C          30.8600   -6.8270    4.3630 C.3     1  UNL1        0.1084
     52 O          31.5980   -5.8760    6.4180 O.3     1  UNL1       -0.4803
     53 C          32.0030   -6.4850    5.2850 C.2     1  UNL1        0.3128
     54 O          33.1910   -6.6590    5.0720 O.2     1  UNL1       -0.2505
     55 C          30.8810   -5.8640    3.1580 C.3     1  UNL1        0.0799
     56 O          30.1020   -2.0870    3.1160 O.3     1  UNL1       -0.3413
     57 C          30.4590   -4.4540    3.6230 C.3     1  UNL1        0.0045
     58 O          28.9560    0.4380    3.1780 O.3     1  UNL1       -0.3851
     59 C          30.2010   -3.3970    2.5370 C.3     1  UNL1        0.0826
     60 O          25.3720   -0.3620    5.4360 O.3     1  UNL1       -0.3876
     61 C          28.9770   -1.8890    3.9790 C.3     1  UNL1        0.1875
     62 O          27.7620   -2.2410    3.3240 O.3     1  UNL1       -0.3431
     63 C          28.9820   -0.3890    4.3590 C.3     1  UNL1        0.1234
     64 O          33.1850   -5.1510   -7.7870 O.3     1  UNL1       -0.4582
     65 C          27.7570   -0.0640    5.2250 C.3     1  UNL1        0.0646
     66 O          30.9710   -4.5190   -7.6180 O.2     1  UNL1       -0.2456
     67 C          26.4680   -0.5570    4.5370 C.3     1  UNL1        0.0987
     68 O          28.7220   -5.7110   -0.2610 O.3     1  UNL1       -0.3913
     69 C          26.6110   -2.0380    4.1540 C.3     1  UNL1        0.0863
     70 O          31.6020   -7.7470    1.2090 O.3     1  UNL1       -0.3643
     71 C          25.3940   -2.5380    3.3830 C.3     1  UNL1       -0.0361
     72 O          29.9950   -6.2970    2.1100 O.3     1  UNL1       -0.3444
     73 C          31.3180   -3.2830    1.5360 C.2     1  UNL1       -0.0555
     74 C          31.1010   -3.0740    0.2280 C.2     1  UNL1       -0.0633
     75 C          32.1560   -2.9970   -0.7560 C.2     1  UNL1       -0.0620
     76 C          31.9160   -2.6740   -2.0350 C.2     1  UNL1       -0.0618
     77 C          32.9270   -2.7180   -3.0680 C.2     1  UNL1       -0.0618
     78 C          32.6640   -2.4050   -4.3450 C.2     1  UNL1       -0.0621
     79 C          33.6080   -2.6320   -5.4160 C.2     1  UNL1       -0.0656
     80 C          33.2920   -2.4380   -6.7060 C.2     1  UNL1       -0.0805
     81 C          34.1530   -2.9100   -7.8490 C.3     1  UNL1        0.0026
     82 C          33.4670   -4.0340   -8.6600 C.3     1  UNL1        0.1040
     83 C          34.3940   -4.5450   -9.7570 C.3     1  UNL1       -0.0274
     84 C          31.9310   -5.1830   -7.2640 C.2     1  UNL1        0.3322
     85 C          31.9600   -6.0680   -6.0820 C.2     1  UNL1        0.0225
     86 C          31.1310   -5.8040   -5.0610 C.2     1  UNL1       -0.0553
     87 C          31.1810   -6.5110   -3.8030 C.2     1  UNL1       -0.0654
     88 C          30.5020   -6.1040   -2.7190 C.2     1  UNL1       -0.0816
     89 C          30.6120   -6.7640   -1.3700 C.3     1  UNL1       -0.0081
     90 C          29.2490   -6.9680   -0.6890 C.3     1  UNL1        0.0635
     91 C          29.2760   -7.9510    0.4990 C.3     1  UNL1        0.0276
     92 C          30.2570   -7.6270    1.6500 C.3     1  UNL1        0.1723
     93 C          30.0490   -8.6130    2.7960 C.3     1  UNL1        0.0282
@<TRIPOS>BOND
     1    42    83    1
     2    45    83    1
     3    83    33    1
     4    83    82    1
     5    32    82    1
     6    82    81    1
     7    82    64    1
     8    41    81    1
     9    81    31    1
    10    81    80    1
    11    64    84    1
    12    66    84    2
    13    84    85    1
    14     5    80    1
    15    80    79    2
    16    85     2    1
    17    85    86    2
    18    79     6    1
    19    79    78    1
    20     1    86    1
    21    86    87    1
    22     7    78    1
    23    78    77    2
    24    87     3    1
    25    87    88    2
    26    77     8    1
    27    77    76    1
    28     4    88    1
    29    88    89    1
    30     9    76    1
    31    76    75    2
    32    43    89    1
    33    35    90    1
    34    89    34    1
    35    89    90    1
    36    75    10    1
    37    75    74    1
    38    90    68    1
    39    90    91    1
    40    68    27    1
    41    12    74    1
    42    36    91    1
    43    74    73    2
    44    91    44    1
    45    91    92    1
    46    29    70    1
    47    70    92    1
    48    73    11    1
    49    73    59    1
    50    92    72    1
    51    92    93    1
    52    21    59    1
    53    72    55    1
    54    46    71    1
    55    37    93    1
    56    20    58    1
    57    59    56    1
    58    59    57    1
    59    18    55    1
    60    93    13    1
    61    93    49    1
    62    40    71    1
    63    56    61    1
    64    55    57    1
    65    55    51    1
    66    58    63    1
    67    62    61    1
    68    62    69    1
    69    71    30    1
    70    71    69    1
    71    57    39    1
    72    57    19    1
    73    26    67    1
    74    15    49    1
    75    49    51    1
    76    49    50    1
    77    61    63    1
    78    61    23    1
    79    69    67    1
    80    69    28    1
    81    63    24    1
    82    63    65    1
    83    51    17    1
    84    51    53    1
    85    67    65    1
    86    67    60    1
    87    38    48    1
    88    16    50    1
    89    54    53    2
    90    65    48    1
    91    65    25    1
    92    53    52    1
    93    60    22    1
    94    48    14    1
    95    52    47    1
