@<TRIPOS>MOLECULE
78.28182
 93 95 0 0 0
SMALL
GASTEIGER

@<TRIPOS>ATOM
      1 H          29.8780   -3.8610   -4.5400 H       1  UNL1        0.0620
      2 H          32.9610   -3.9780   -4.4750 H       1  UNL1        0.0689
      3 H          31.9350   -5.2180   -2.6210 H       1  UNL1        0.0615
      4 H          28.8630   -5.2200   -2.6990 H       1  UNL1        0.0573
      5 H          33.2550   -5.9700   -9.2500 H       1  UNL1        0.0573
      6 H          34.4030   -5.6010   -6.4250 H       1  UNL1        0.0614
      7 H          32.9050   -7.9880   -7.7530 H       1  UNL1        0.0617
      8 H          33.3380   -7.0490   -4.8560 H       1  UNL1        0.0618
      9 H          32.0190   -9.6190   -6.0110 H       1  UNL1        0.0618
     10 H          31.9680   -8.1920   -3.2860 H       1  UNL1        0.0617
     11 H          30.4680   -9.1650   -1.7180 H       1  UNL1        0.0598
     12 H          30.7910  -10.9220   -4.2110 H       1  UNL1        0.0615
     13 H          29.9090   -8.5800    3.2520 H       1  UNL1        0.0342
     14 H          23.1050  -11.3730   -2.0000 H       1  UNL1        0.1186
     15 H          27.0960   -9.6950    2.8310 H       1  UNL1        0.0604
     16 H          27.8910   -9.6100    4.9450 H       1  UNL1        0.2098
     17 H          29.7780  -11.1200    2.4250 H       1  UNL1        0.0465
     18 H          27.8630  -10.1630    0.2240 H       1  UNL1        0.0607
     19 H          29.3620  -12.3030   -0.0190 H       1  UNL1        0.0319
     20 H          26.6390  -10.4490   -3.7530 H       1  UNL1        0.2101
     21 H          29.7700  -12.0650   -2.2670 H       1  UNL1        0.0642
     22 H          23.4520  -14.4120   -2.8520 H       1  UNL1        0.2100
     23 H          27.2550  -12.2860   -0.9400 H       1  UNL1        0.0937
     24 H          25.5430  -10.5890   -1.5800 H       1  UNL1        0.0660
     25 H          24.7050  -12.8780   -1.1470 H       1  UNL1        0.0512
     26 H          25.1770  -13.4580   -4.1220 H       1  UNL1        0.0635
     27 H          30.2180   -3.9890   -0.3240 H       1  UNL1        0.2098
     28 H          26.7340  -14.4820   -1.6740 H       1  UNL1        0.0620
     29 H          27.5990   -7.5730    0.0510 H       1  UNL1        0.2128
     30 H          26.6000  -16.1400   -3.5180 H       1  UNL1        0.0255
     31 H          34.4920   -3.9160   -9.6870 H       1  UNL1        0.0343
     32 H          33.5630   -2.0360   -8.3180 H       1  UNL1        0.0734
     33 H          31.3170   -4.0970   -8.7160 H       1  UNL1        0.0265
     34 H          31.0060   -6.7530   -1.0760 H       1  UNL1        0.0332
     35 H          28.4850   -5.4300    0.0860 H       1  UNL1        0.0598
     36 H          29.4370   -6.0790    2.2410 H       1  UNL1        0.0342
     37 H          28.3820   -7.7440    3.5190 H       1  UNL1        0.0342
     38 H          23.5210  -11.6800   -3.5230 H       1  UNL1        0.1186
     39 H          30.7360  -11.2150   -0.0250 H       1  UNL1        0.0319
     40 H          28.2380  -15.4710   -3.3610 H       1  UNL1        0.0255
     41 H          35.1590   -3.8950   -8.0570 H       1  UNL1        0.0343
     42 H          32.1110   -3.2670  -10.0780 H       1  UNL1        0.0265
     43 H          29.3440   -7.2630   -1.3960 H       1  UNL1        0.0332
     44 H          30.7740   -6.9130    1.4840 H       1  UNL1        0.0342
     45 H          31.2230   -2.3440   -8.8750 H       1  UNL1        0.0265
     46 H          27.1960  -14.9150   -4.6630 H       1  UNL1        0.0255
     47 H          27.7790  -13.8300    2.6410 H       1  UNL1        0.2951
     48 N          23.4150  -12.1340   -2.6070 N.3     1  UNL1       -0.3229
     49 C          28.1710   -9.8130    3.0160 C.3     1  UNL1        0.0754
     50 O          28.3220  -10.2640    4.3650 O.3     1  UNL1       -0.3907
     51 C          28.7780  -10.8400    2.0670 C.3     1  UNL1        0.1084
     52 O          28.4640  -13.1300    2.6480 O.3     1  UNL1       -0.4803
     53 C          27.8890  -12.0590    2.0720 C.2     1  UNL1        0.3128
     54 O          26.7760  -12.1430    1.5730 O.2     1  UNL1       -0.2505
     55 C          28.8720  -10.2880    0.6320 C.3     1  UNL1        0.0799
     56 O          28.1160  -10.8230   -2.1380 O.3     1  UNL1       -0.3413
     57 C          29.6660  -11.2780   -0.2630 C.3     1  UNL1        0.0045
     58 O          25.7440  -10.8170   -3.5990 O.3     1  UNL1       -0.3851
     59 C          29.4680  -11.1250   -1.7870 C.3     1  UNL1        0.0826
     60 O          24.3410  -14.8240   -2.8390 O.3     1  UNL1       -0.3876
     61 C          27.2160  -11.9270   -1.9720 C.3     1  UNL1        0.1875
     62 O          27.5610  -12.9930   -2.8540 O.3     1  UNL1       -0.3431
     63 C          25.7970  -11.3940   -2.2780 C.3     1  UNL1        0.1234
     64 O          33.0030   -3.2590   -6.7550 O.3     1  UNL1       -0.4582
     65 C          24.7810  -12.5410   -2.1880 C.3     1  UNL1        0.0646
     66 O          30.9010   -2.3450   -6.4690 O.2     1  UNL1       -0.2456
     67 C          25.2350  -13.7300   -3.0600 C.3     1  UNL1        0.0987
     68 O          30.3260   -4.6030    0.4250 O.3     1  UNL1       -0.3913
     69 C          26.6810  -14.1180   -2.7090 C.3     1  UNL1        0.0863
     70 O          27.5610   -7.7970    0.9960 O.3     1  UNL1       -0.3643
     71 C          27.1990  -15.2300   -3.6140 C.3     1  UNL1       -0.0361
     72 O          29.5190   -8.9990    0.6010 O.3     1  UNL1       -0.3444
     73 C          30.3270  -10.0310   -2.3530 C.2     1  UNL1       -0.0555
     74 C          30.9330  -10.0690   -3.5500 C.2     1  UNL1       -0.0633
     75 C          31.7620   -8.9790   -4.0100 C.2     1  UNL1       -0.0620
     76 C          32.2430   -8.8680   -5.2570 C.2     1  UNL1       -0.0618
     77 C          33.0160   -7.7130   -5.6570 C.2     1  UNL1       -0.0618
     78 C          33.2680   -7.3760   -6.9310 C.2     1  UNL1       -0.0621
     79 C          33.9090   -6.1200   -7.2450 C.2     1  UNL1       -0.0656
     80 C          33.7940   -5.5010   -8.4300 C.2     1  UNL1       -0.0805
     81 C          34.2390   -4.0680   -8.6320 C.3     1  UNL1        0.0026
     82 C          33.1600   -3.0460   -8.1820 C.3     1  UNL1        0.1040
     83 C          31.8830   -3.2070   -9.0090 C.3     1  UNL1       -0.0274
     84 C          31.8650   -2.9810   -6.0870 C.2     1  UNL1        0.3322
     85 C          31.9640   -3.7100   -4.8030 C.2     1  UNL1        0.0225
     86 C          30.8630   -4.1160   -4.1540 C.2     1  UNL1       -0.0553
     87 C          30.9400   -4.9570   -2.9810 C.2     1  UNL1       -0.0654
     88 C          29.8660   -5.4550   -2.3490 C.2     1  UNL1       -0.0816
     89 C          29.9720   -6.3960   -1.1720 C.3     1  UNL1       -0.0081
     90 C          29.5270   -5.7650    0.1510 C.3     1  UNL1        0.0635
     91 C          29.7050   -6.6880    1.3650 C.3     1  UNL1        0.0276
     92 C          28.8990   -8.0020    1.4160 C.3     1  UNL1        0.1723
     93 C          28.8820   -8.4770    2.8730 C.3     1  UNL1        0.0282
@<TRIPOS>BOND
     1    42    83    1
     2    31    81    1
     3     5    80    1
     4    83    45    1
     5    83    33    1
     6    83    82    1
     7    81    80    1
     8    81    82    1
     9    81    41    1
    10    80    79    2
    11    32    82    1
    12    82    64    1
    13     7    78    1
    14    79    78    1
    15    79     6    1
    16    78    77    2
    17    64    84    1
    18    66    84    2
    19    84    85    1
    20     9    76    1
    21    77    76    1
    22    77     8    1
    23    76    75    2
    24    85     2    1
    25    85    86    2
    26    46    71    1
    27     1    86    1
    28    12    74    1
    29    86    87    1
    30    26    67    1
    31    75    74    1
    32    75    10    1
    33    20    58    1
    34    71    30    1
    35    71    40    1
    36    71    69    1
    37    58    63    1
    38    74    73    2
    39    38    48    1
    40    67    60    1
    41    67    69    1
    42    67    65    1
    43    87     3    1
    44    87    88    2
    45    62    69    1
    46    62    61    1
    47    22    60    1
    48    69    28    1
    49     4    88    1
    50    48    65    1
    51    48    14    1
    52    73    59    1
    53    73    11    1
    54    88    89    1
    55    63    65    1
    56    63    61    1
    57    63    24    1
    58    21    59    1
    59    65    25    1
    60    56    61    1
    61    56    59    1
    62    61    23    1
    63    59    57    1
    64    43    89    1
    65    89    34    1
    66    89    90    1
    67    27    68    1
    68    57    39    1
    69    57    19    1
    70    57    55    1
    71    29    70    1
    72    35    90    1
    73    90    68    1
    74    90    91    1
    75    18    55    1
    76    72    55    1
    77    72    92    1
    78    55    51    1
    79    70    92    1
    80    91    92    1
    81    91    44    1
    82    91    36    1
    83    92    93    1
    84    54    53    2
    85    51    53    1
    86    51    17    1
    87    51    49    1
    88    53    52    1
    89    47    52    1
    90    15    49    1
    91    93    49    1
    92    93    13    1
    93    93    37    1
    94    49    50    1
    95    50    16    1
