@<TRIPOS>MOLECULE
67.81734
 93 95 0 0 0
SMALL
GASTEIGER

@<TRIPOS>ATOM
      1 H          29.8030   -6.5190   -4.0890 H       1  UNL1        0.0620
      2 H          30.1950   -3.4600   -4.1870 H       1  UNL1        0.0689
      3 H          29.0250   -4.2710   -2.0820 H       1  UNL1        0.0615
      4 H          28.7720   -7.3320   -2.1470 H       1  UNL1        0.0573
      5 H          34.0690   -7.2230   -4.8990 H       1  UNL1        0.0573
      6 H          31.5780   -8.8220   -4.0690 H       1  UNL1        0.0614
      7 H          33.9360   -7.5800   -2.4550 H       1  UNL1        0.0617
      8 H          31.3200   -8.9840   -1.6520 H       1  UNL1        0.0618
      9 H          33.6520   -7.7380   -0.0060 H       1  UNL1        0.0618
     10 H          30.9130   -8.9180    0.7480 H       1  UNL1        0.0617
     11 H          30.3500   -8.5480    3.0870 H       1  UNL1        0.0598
     12 H          33.2300   -7.6920    2.4330 H       1  UNL1        0.0615
     13 H          32.6720   -4.7830    1.5330 H       1  UNL1        0.0342
     14 H          31.0620  -11.6630    9.6360 H       1  UNL1        0.1186
     15 H          32.1280   -2.6050    3.6060 H       1  UNL1        0.0604
     16 H          34.1100   -2.5000    2.6070 H       1  UNL1        0.2098
     17 H          33.0870   -5.4560    4.0400 H       1  UNL1        0.0465
     18 H          30.2660   -4.4270    4.7190 H       1  UNL1        0.0607
     19 H          29.6690   -6.8030    4.9570 H       1  UNL1        0.0319
     20 H          32.1190  -10.8800    5.8370 H       1  UNL1        0.2101
     21 H          32.6750   -7.4250    4.7700 H       1  UNL1        0.0642
     22 H          33.7650  -10.3330   10.7030 H       1  UNL1        0.2100
     23 H          31.3590   -7.9230    7.3670 H       1  UNL1        0.0937
     24 H          30.4930  -10.2550    7.5490 H       1  UNL1        0.0660
     25 H          31.6210   -9.3620    9.5590 H       1  UNL1        0.0512
     26 H          34.2480  -10.4580    8.4170 H       1  UNL1        0.0635
     27 H          26.9770   -4.1950    0.2360 H       1  UNL1        0.2098
     28 H          33.3070   -7.5370    8.6480 H       1  UNL1        0.0620
     29 H          29.0380   -3.1890    1.8640 H       1  UNL1        0.2128
     30 H          35.7560   -7.8040    8.9600 H       1  UNL1        0.0255
     31 H          31.7490   -8.5820   -6.4360 H       1  UNL1        0.0343
     32 H          32.9460   -5.7940   -6.9080 H       1  UNL1        0.0734
     33 H          30.6700   -7.2680   -8.3590 H       1  UNL1        0.0265
     34 H          28.5050   -7.2650    0.1390 H       1  UNL1        0.0332
     35 H          28.2870   -5.5220    1.6600 H       1  UNL1        0.0598
     36 H          30.3330   -4.1530   -0.1150 H       1  UNL1        0.0342
     37 H          32.2000   -3.1160    1.2170 H       1  UNL1        0.0342
     38 H          32.4530  -12.0870    8.9550 H       1  UNL1        0.1186
     39 H          30.8400   -6.2710    6.1280 H       1  UNL1        0.0319
     40 H          35.3760   -7.0370    7.4030 H       1  UNL1        0.0255
     41 H          33.3630   -8.2650   -7.0800 H       1  UNL1        0.0343
     42 H          32.2860   -6.9590   -9.0370 H       1  UNL1        0.0265
     43 H          27.0800   -6.3640   -0.3590 H       1  UNL1        0.0332
     44 H          30.6680   -5.8140    0.4300 H       1  UNL1        0.0342
     45 H          31.1810   -5.6160   -8.6720 H       1  UNL1        0.0265
     46 H          35.8470   -8.7300    7.4420 H       1  UNL1        0.0255
     47 H          32.6760   -2.8510    6.9370 H       1  UNL1        0.2951
     48 N          32.0490  -11.4020    9.6080 N.3     1  UNL1       -0.3229
     49 C          32.5990   -3.5410    3.2850 C.3     1  UNL1        0.0754
     50 O          34.0050   -3.2950    3.1610 O.3     1  UNL1       -0.3907
     51 C          32.3760   -4.6630    4.2990 C.3     1  UNL1        0.1084
     52 O          32.4050   -2.9560    6.0000 O.3     1  UNL1       -0.4803
     53 C          32.7060   -4.2330    5.7090 C.2     1  UNL1        0.3128
     54 O          33.1060   -4.9750    6.5940 O.2     1  UNL1       -0.2505
     55 C          30.9280   -5.1780    4.2670 C.3     1  UNL1        0.0799
     56 O          31.3450   -8.8290    5.5000 O.3     1  UNL1       -0.3413
     57 C          30.7170   -6.4910    5.0630 C.3     1  UNL1        0.0045
     58 O          32.1410  -11.1740    6.7720 O.3     1  UNL1       -0.3851
     59 C          31.6180   -7.6890    4.6720 C.3     1  UNL1        0.0826
     60 O          34.1220   -9.5400   10.2490 O.3     1  UNL1       -0.3876
     61 C          31.8700   -8.7280    6.8280 C.3     1  UNL1        0.1875
     62 O          33.2750   -8.4880    6.8060 O.3     1  UNL1       -0.3431
     63 C          31.5740  -10.0790    7.5220 C.3     1  UNL1        0.1234
     64 O          31.0540   -6.0610   -6.0320 O.3     1  UNL1       -0.4582
     65 C          32.1680  -10.0810    8.9370 C.3     1  UNL1        0.0646
     66 O          31.6140   -3.8500   -6.3110 O.2     1  UNL1       -0.2456
     67 C          33.6560   -9.6700    8.9030 C.3     1  UNL1        0.0987
     68 O          27.9120   -3.9740    0.4050 O.3     1  UNL1       -0.3913
     69 C          33.8200   -8.3550    8.1250 C.3     1  UNL1        0.0863
     70 O          29.8440   -3.2180    2.4170 O.3     1  UNL1       -0.3643
     71 C          35.2850   -7.9610    7.9840 C.3     1  UNL1       -0.0361
     72 O          30.4440   -5.4180    2.9450 O.3     1  UNL1       -0.3444
     73 C          31.3520   -8.1660    3.2670 C.2     1  UNL1       -0.0555
     74 C          32.2340   -8.0940    2.2560 C.2     1  UNL1       -0.0633
     75 C          31.8910   -8.4660    0.9010 C.2     1  UNL1       -0.0620
     76 C          32.6840   -8.2140   -0.1520 C.2     1  UNL1       -0.0618
     77 C          32.2770   -8.4860   -1.5150 C.2     1  UNL1       -0.0618
     78 C          32.9890   -8.1010   -2.5850 C.2     1  UNL1       -0.0621
     79 C          32.5180   -8.2890   -3.9400 C.2     1  UNL1       -0.0656
     80 C          33.1420   -7.7800   -5.0140 C.2     1  UNL1       -0.0805
     81 C          32.5840   -7.8700   -6.4160 C.3     1  UNL1        0.0026
     82 C          32.1020   -6.4960   -6.9210 C.3     1  UNL1        0.1040
     83 C          31.5340   -6.5950   -8.3310 C.3     1  UNL1       -0.0274
     84 C          31.0220   -4.7430   -5.7270 C.2     1  UNL1        0.3322
     85 C          30.2360   -4.4980   -4.4950 C.2     1  UNL1        0.0225
     86 C          29.7120   -5.4860   -3.7560 C.2     1  UNL1       -0.0553
     87 C          29.0960   -5.2870   -2.4630 C.2     1  UNL1       -0.0654
     88 C          28.6930   -6.3300   -1.7230 C.2     1  UNL1       -0.0816
     89 C          28.1750   -6.3190   -0.3110 C.3     1  UNL1       -0.0081
     90 C          28.6050   -5.2020    0.6610 C.3     1  UNL1        0.0635
     91 C          30.1120   -4.8980    0.6580 C.3     1  UNL1        0.0276
     92 C          30.5980   -4.3530    2.0140 C.3     1  UNL1        0.1723
     93 C          32.0660   -3.9510    1.9170 C.3     1  UNL1        0.0282
@<TRIPOS>BOND
     1    42    83    1
     2    45    83    1
     3    33    83    1
     4    83    82    1
     5    41    81    1
     6    82    32    1
     7    82    81    1
     8    82    64    1
     9    31    81    1
    10    81    80    1
    11    66    84    2
    12    64    84    1
    13    84    85    1
    14    80     5    1
    15    80    79    2
    16    85     2    1
    17    85    86    2
    18     1    86    1
    19     6    79    1
    20    79    78    1
    21    86    87    1
    22    78     7    1
    23    78    77    2
    24    87     3    1
    25    87    88    2
    26     4    88    1
    27    88    89    1
    28     8    77    1
    29    77    76    1
    30    43    89    1
    31    89    34    1
    32    89    90    1
    33    76     9    1
    34    76    75    2
    35    36    91    1
    36    27    68    1
    37    68    90    1
    38    44    91    1
    39    91    90    1
    40    91    92    1
    41    90    35    1
    42    10    75    1
    43    75    74    1
    44    37    93    1
    45    13    93    1
    46    29    70    1
    47    93    92    1
    48    93    49    1
    49    92    70    1
    50    92    72    1
    51    74    12    1
    52    74    73    2
    53    16    50    1
    54    72    55    1
    55    11    73    1
    56    50    49    1
    57    73    59    1
    58    49    15    1
    59    49    51    1
    60    17    51    1
    61    55    51    1
    62    55    18    1
    63    55    57    1
    64    51    53    1
    65    59    21    1
    66    59    57    1
    67    59    56    1
    68    19    57    1
    69    57    39    1
    70    56    61    1
    71    53    52    1
    72    53    54    2
    73    20    58    1
    74    52    47    1
    75    58    63    1
    76    62    61    1
    77    62    69    1
    78    61    23    1
    79    61    63    1
    80    40    71    1
    81    46    71    1
    82    63    24    1
    83    63    65    1
    84    71    69    1
    85    71    30    1
    86    69    28    1
    87    69    67    1
    88    26    67    1
    89    67    65    1
    90    67    60    1
    91    65    25    1
    92    65    48    1
    93    38    48    1
    94    48    14    1
    95    60    22    1
