@<TRIPOS>MOLECULE
76.64820
 93 95 0 0 0
SMALL
GASTEIGER

@<TRIPOS>ATOM
      1 H          32.5390  -10.0700   -0.5760 H       1  UNL1        0.0620
      2 H          31.1300  -12.0590   -2.4760 H       1  UNL1        0.0689
      3 H          29.5430  -10.3810   -1.3780 H       1  UNL1        0.0615
      4 H          31.1650   -8.1210   -0.0670 H       1  UNL1        0.0573
      5 H          36.5660  -10.7910   -2.4790 H       1  UNL1        0.0573
      6 H          34.2470   -9.0790   -3.5470 H       1  UNL1        0.0614
      7 H          36.2050   -8.7670   -1.1450 H       1  UNL1        0.0617
      8 H          33.5840   -7.3630   -1.9310 H       1  UNL1        0.0618
      9 H          35.6100   -6.9340    0.3950 H       1  UNL1        0.0618
     10 H          32.7560   -5.9200   -0.1410 H       1  UNL1        0.0617
     11 H          31.8410   -4.7130    1.7250 H       1  UNL1        0.0598
     12 H          34.8180   -5.3370    2.1180 H       1  UNL1        0.0615
     13 H          28.3000   -4.8740    2.5190 H       1  UNL1        0.0342
     14 H          37.7320   -1.3630    6.5880 H       1  UNL1        0.1186
     15 H          28.0870   -5.0300    5.5500 H       1  UNL1        0.0604
     16 H          26.6140   -3.7190    4.5330 H       1  UNL1        0.2098
     17 H          30.0220   -3.3780    3.8600 H       1  UNL1        0.0465
     18 H          30.6410   -5.8570    5.5790 H       1  UNL1        0.0607
     19 H          32.8810   -5.8110    4.6850 H       1  UNL1        0.0319
     20 H          36.1400   -2.8820    3.1980 H       1  UNL1        0.2101
     21 H          32.2070   -3.0860    3.4410 H       1  UNL1        0.0642
     22 H          36.3970    1.4630    5.9340 H       1  UNL1        0.2100
     23 H          33.6260   -2.4100    5.4530 H       1  UNL1        0.0937
     24 H          36.0320   -3.0580    5.6420 H       1  UNL1        0.0660
     25 H          35.4170   -0.8710    6.6320 H       1  UNL1        0.0512
     26 H          36.0410    0.3740    3.8980 H       1  UNL1        0.0635
     27 H          29.7110   -5.5230   -0.2590 H       1  UNL1        0.2098
     28 H          33.3130   -0.0330    5.2620 H       1  UNL1        0.0620
     29 H          29.5770   -8.1610    4.5510 H       1  UNL1        0.2128
     30 H          33.4370    2.0250    3.8700 H       1  UNL1        0.0255
     31 H          36.3460  -11.6590   -4.8140 H       1  UNL1        0.0343
     32 H          34.5660  -13.3220   -4.7450 H       1  UNL1        0.0734
     33 H          36.0300  -13.1770   -2.0780 H       1  UNL1        0.0265
     34 H          28.1500   -8.6560   -0.1760 H       1  UNL1        0.0332
     35 H          27.9190   -6.4480    0.8440 H       1  UNL1        0.0598
     36 H          30.0420   -8.1550    2.2280 H       1  UNL1        0.0342
     37 H          27.1760   -5.8650    3.4430 H       1  UNL1        0.0342
     38 H          37.9000   -0.7490    5.1140 H       1  UNL1        0.1186
     39 H          32.5320   -4.4080    5.6490 H       1  UNL1        0.0319
     40 H          32.4100    0.7860    3.1160 H       1  UNL1        0.0255
     41 H          34.7490  -10.9370   -4.9700 H       1  UNL1        0.0343
     42 H          36.5080  -14.0140   -3.5510 H       1  UNL1        0.0265
     43 H          28.7960   -7.3890   -1.2330 H       1  UNL1        0.0332
     44 H          28.3030   -8.2760    2.4100 H       1  UNL1        0.0342
     45 H          35.0790  -14.5510   -2.6380 H       1  UNL1        0.0265
     46 H          34.0330    1.0580    2.5000 H       1  UNL1        0.0255
     47 H          30.7100   -1.7420    6.7210 H       1  UNL1        0.2951
     48 N          37.3840   -0.6090    5.9930 N.3     1  UNL1       -0.3229
     49 C          28.3910   -4.5330    4.6200 C.3     1  UNL1        0.0754
     50 O          27.5300   -3.4030    4.4390 O.3     1  UNL1       -0.3907
     51 C          29.8430   -4.0550    4.7040 C.3     1  UNL1        0.1084
     52 O          30.7370   -2.1580    5.8330 O.3     1  UNL1       -0.4803
     53 C          30.0330   -3.2980    5.9930 C.2     1  UNL1        0.3128
     54 O          29.6750   -3.6420    7.1070 O.2     1  UNL1       -0.2505
     55 C          30.7980   -5.2520    4.6750 C.3     1  UNL1        0.0799
     56 O          34.1730   -3.6150    3.8490 O.3     1  UNL1       -0.3413
     57 C          32.2960   -4.8800    4.6880 C.3     1  UNL1        0.0045
     58 O          36.6160   -2.3090    3.8350 O.3     1  UNL1       -0.3851
     59 C          32.8190   -3.9880    3.5450 C.3     1  UNL1        0.0826
     60 O          35.5020    1.4890    5.5360 O.3     1  UNL1       -0.3876
     61 C          34.2670   -2.3790    4.5630 C.3     1  UNL1        0.1875
     62 O          33.8750   -1.2970    3.7210 O.3     1  UNL1       -0.3431
     63 C          35.7470   -2.2290    4.9840 C.3     1  UNL1        0.1234
     64 O          33.4340  -12.5270   -3.2850 O.3     1  UNL1       -0.4582
     65 C          35.9580   -0.8770    5.6770 C.3     1  UNL1        0.0646
     66 O          34.1040  -12.1110   -1.1090 O.2     1  UNL1       -0.2456
     67 C          35.4170    0.2670    4.7950 C.3     1  UNL1        0.0987
     68 O          29.8570   -5.8740    0.6360 O.3     1  UNL1       -0.3913
     69 C          33.9670   -0.0280    4.3800 C.3     1  UNL1        0.0863
     70 O          28.9760   -7.3990    4.6250 O.3     1  UNL1       -0.3643
     71 C          33.4350    1.0290    3.4180 C.3     1  UNL1       -0.0361
     72 O          30.5450   -6.0950    3.5450 O.3     1  UNL1       -0.3444
     73 C          32.8120   -4.6950    2.2150 C.2     1  UNL1       -0.0555
     74 C          33.8480   -5.3150    1.6270 C.2     1  UNL1       -0.0633
     75 C          33.7110   -6.0180    0.3710 C.2     1  UNL1       -0.0620
     76 C          34.6690   -6.8060   -0.1370 C.2     1  UNL1       -0.0618
     77 C          34.4840   -7.5650   -1.3540 C.2     1  UNL1       -0.0618
     78 C          35.3280   -8.5310   -1.7450 C.2     1  UNL1       -0.0621
     79 C          35.0780   -9.3590   -2.9020 C.2     1  UNL1       -0.0656
     80 C          35.7620  -10.4880   -3.1460 C.2     1  UNL1       -0.0805
     81 C          35.4230  -11.4380   -4.2640 C.3     1  UNL1        0.0026
     82 C          34.7610  -12.7620   -3.8210 C.3     1  UNL1        0.1040
     83 C          35.6430  -13.6740   -2.9720 C.3     1  UNL1       -0.0274
     84 C          33.2750  -12.1250   -2.0010 C.2     1  UNL1        0.3322
     85 C          31.9020  -11.5960   -1.8770 C.2     1  UNL1        0.0225
     86 C          31.6990  -10.5150   -1.1110 C.2     1  UNL1       -0.0553
     87 C          30.4160   -9.8650   -0.9830 C.2     1  UNL1       -0.0654
     88 C          30.2830   -8.6500   -0.4280 C.2     1  UNL1       -0.0816
     89 C          28.9650   -7.9320   -0.2940 C.3     1  UNL1       -0.0081
     90 C          28.9120   -6.9130    0.8660 C.3     1  UNL1        0.0635
     91 C          29.1200   -7.5600    2.2440 C.3     1  UNL1        0.0276
     92 C          29.2200   -6.6110    3.4600 C.3     1  UNL1        0.1723
     93 C          28.2010   -5.4730    3.4320 C.3     1  UNL1        0.0282
@<TRIPOS>BOND
     1    41    81    1
     2    31    81    1
     3    32    82    1
     4    81    82    1
     5    81    80    1
     6    82    64    1
     7    82    83    1
     8    42    83    1
     9     6    79    1
    10    64    84    1
    11    80    79    2
    12    80     5    1
    13    83    45    1
    14    83    33    1
    15    79    78    1
    16     2    85    1
    17    84    85    1
    18    84    66    2
    19     8    77    1
    20    85    86    2
    21    78    77    2
    22    78     7    1
    23     3    87    1
    24    77    76    1
    25    43    89    1
    26    86    87    1
    27    86     1    1
    28    87    88    2
    29    88    89    1
    30    88     4    1
    31    89    34    1
    32    89    90    1
    33    27    68    1
    34    10    75    1
    35    76    75    2
    36    76     9    1
    37    75    74    1
    38    68    90    1
    39    35    90    1
    40    90    91    1
    41    74    12    1
    42    74    73    2
    43    11    73    1
    44    73    59    1
    45    36    91    1
    46    91    44    1
    47    91    92    1
    48    46    71    1
    49    13    93    1
    50    40    71    1
    51    20    58    1
    52    71    30    1
    53    71    69    1
    54    93    37    1
    55    93    92    1
    56    93    49    1
    57    21    59    1
    58    92    72    1
    59    92    70    1
    60    59    56    1
    61    59    57    1
    62    72    55    1
    63    62    69    1
    64    62    61    1
    65    58    63    1
    66    56    61    1
    67    17    51    1
    68    26    67    1
    69    69    67    1
    70    69    28    1
    71    50    16    1
    72    50    49    1
    73    29    70    1
    74    61    63    1
    75    61    23    1
    76    49    51    1
    77    49    15    1
    78    55    57    1
    79    55    51    1
    80    55    18    1
    81    19    57    1
    82    57    39    1
    83    51    53    1
    84    67    60    1
    85    67    65    1
    86    63    24    1
    87    63    65    1
    88    38    48    1
    89    60    22    1
    90    65    48    1
    91    65    25    1
    92    52    53    1
    93    52    47    1
    94    48    14    1
    95    53    54    2
