@<TRIPOS>MOLECULE
78.58027
 93 95 0 0 0
SMALL
GASTEIGER

@<TRIPOS>ATOM
      1 H          30.3410   -5.0910   -4.2250 H       1  UNL1        0.0620
      2 H          31.1500   -7.7100   -5.6450 H       1  UNL1        0.0689
      3 H          30.7160   -7.9910   -3.1350 H       1  UNL1        0.0615
      4 H          29.3950   -5.4490   -2.0470 H       1  UNL1        0.0573
      5 H          29.0520   -3.2230   -8.7110 H       1  UNL1        0.0573
      6 H          27.7070   -5.2440   -6.8290 H       1  UNL1        0.0614
      7 H          27.8160   -2.1330   -6.8300 H       1  UNL1        0.0617
      8 H          27.3180   -4.2450   -4.6530 H       1  UNL1        0.0618
      9 H          26.8900   -1.1680   -4.6440 H       1  UNL1        0.0618
     10 H          27.4960   -3.2590   -2.4760 H       1  UNL1        0.0617
     11 H          28.1490   -2.2150   -0.4710 H       1  UNL1        0.0598
     12 H          26.4040   -0.3750   -2.1830 H       1  UNL1        0.0615
     13 H          27.7250   -5.3770    3.3420 H       1  UNL1        0.0342
     14 H          32.0270    2.9020    3.1790 H       1  UNL1        0.1186
     15 H          29.6780   -3.2280    4.2770 H       1  UNL1        0.0604
     16 H          28.9620   -4.8500    5.7210 H       1  UNL1        0.2098
     17 H          26.6430   -2.9110    3.9450 H       1  UNL1        0.0465
     18 H          28.8860   -1.7360    2.2110 H       1  UNL1        0.0607
     19 H          26.6080   -0.4240    2.5380 H       1  UNL1        0.0319
     20 H          30.3090    1.2870   -0.1060 H       1  UNL1        0.2101
     21 H          26.5740    0.3320    0.2300 H       1  UNL1        0.0642
     22 H          30.1350    5.4400    2.9450 H       1  UNL1        0.2100
     23 H          28.0800    1.1500    2.4750 H       1  UNL1        0.0937
     24 H          30.5560    0.9700    2.2880 H       1  UNL1        0.0660
     25 H          29.7000    2.9260    3.5500 H       1  UNL1        0.0512
     26 H          29.6820    4.4350    0.8780 H       1  UNL1        0.0635
     27 H          30.4350   -7.9360    1.5660 H       1  UNL1        0.2098
     28 H          27.3080    3.4310    2.5590 H       1  UNL1        0.0620
     29 H          30.1240   -3.4960    0.6480 H       1  UNL1        0.2128
     30 H          26.8470    5.5610    1.3600 H       1  UNL1        0.0255
     31 H          28.8870   -5.1660  -10.2160 H       1  UNL1        0.0343
     32 H          30.6920   -6.6670   -9.7480 H       1  UNL1        0.0734
     33 H          31.5100   -3.8690   -8.8660 H       1  UNL1        0.0265
     34 H          30.1690   -8.1400   -0.7290 H       1  UNL1        0.0332
     35 H          30.6650   -5.9540    0.5300 H       1  UNL1        0.0598
     36 H          27.6150   -5.9430    0.9530 H       1  UNL1        0.0342
     37 H          29.4760   -5.5030    3.4830 H       1  UNL1        0.0342
     38 H          31.8790    3.6060    1.7420 H       1  UNL1        0.1186
     39 H          25.9070   -1.7010    1.5520 H       1  UNL1        0.0319
     40 H          25.9570    4.2020    0.6420 H       1  UNL1        0.0255
     41 H          28.4520   -6.2390   -8.8930 H       1  UNL1        0.0343
     42 H          31.5140   -4.5510  -10.4890 H       1  UNL1        0.0265
     43 H          28.4860   -7.6610   -0.7950 H       1  UNL1        0.0332
     44 H          28.3800   -4.9130   -0.2300 H       1  UNL1        0.0342
     45 H          32.6210   -5.1810   -9.2490 H       1  UNL1        0.0265
     46 H          27.3920    4.8190   -0.1620 H       1  UNL1        0.0255
     47 H          27.2590   -0.4120    6.1480 H       1  UNL1        0.2951
     48 N          31.4730    3.6060    2.6870 N.3     1  UNL1       -0.3229
     49 C          28.6660   -3.6460    4.2040 C.3     1  UNL1        0.0754
     50 O          28.3260   -4.1460    5.5010 O.3     1  UNL1       -0.3907
     51 C          27.6700   -2.5510    3.8000 C.3     1  UNL1        0.1084
     52 O          26.9730   -1.1910    5.6270 O.3     1  UNL1       -0.4803
     53 C          27.8970   -1.3330    4.6590 C.2     1  UNL1        0.3128
     54 O          28.7800   -0.4990    4.5180 O.2     1  UNL1       -0.2505
     55 C          27.8860   -2.1720    2.3320 C.3     1  UNL1        0.0799
     56 O          28.5930    0.1880    0.6990 O.3     1  UNL1       -0.3413
     57 C          26.8430   -1.1740    1.7760 C.3     1  UNL1        0.0045
     58 O          30.7240    1.9370    0.4980 O.3     1  UNL1       -0.3851
     59 C          27.3180   -0.4280    0.4980 C.3     1  UNL1        0.0826
     60 O          29.2020    5.3280    2.6630 O.3     1  UNL1       -0.3876
     61 C          28.5580    1.3640    1.5140 C.3     1  UNL1        0.1875
     62 O          27.8420    2.4000    0.8450 O.3     1  UNL1       -0.3431
     63 C          30.0320    1.7700    1.7530 C.3     1  UNL1        0.1234
     64 O          30.8070   -6.4880   -7.7520 O.3     1  UNL1       -0.4582
     65 C          30.0890    3.0860    2.5360 C.3     1  UNL1        0.0646
     66 O          31.2700   -4.5550   -6.5700 O.2     1  UNL1       -0.2456
     67 C          29.2280    4.1590    1.8390 C.3     1  UNL1        0.0987
     68 O          29.6660   -7.3460    1.6520 O.3     1  UNL1       -0.3913
     69 C          27.8090    3.6190    1.6000 C.3     1  UNL1        0.0863
     70 O          30.0740   -3.7410    1.5880 O.3     1  UNL1       -0.3643
     71 C          26.9560    4.6150    0.8220 C.3     1  UNL1       -0.0361
     72 O          27.7880   -3.3550    1.5300 O.3     1  UNL1       -0.3444
     73 C          27.5070   -1.3630   -0.6660 C.2     1  UNL1       -0.0555
     74 C          26.9950   -1.2420   -1.9010 C.2     1  UNL1       -0.0633
     75 C          27.2130   -2.2860   -2.8770 C.2     1  UNL1       -0.0620
     76 C          27.1150   -2.1360   -4.2050 C.2     1  UNL1       -0.0618
     77 C          27.3640   -3.2500   -5.0950 C.2     1  UNL1       -0.0618
     78 C          27.7020   -3.1190   -6.3860 C.2     1  UNL1       -0.0621
     79 C          28.0100   -4.2690   -7.2060 C.2     1  UNL1       -0.0656
     80 C          28.7060   -4.1890   -8.3510 C.2     1  UNL1       -0.0805
     81 C          29.0990   -5.3940   -9.1640 C.3     1  UNL1        0.0026
     82 C          30.5690   -5.8450   -9.0300 C.3     1  UNL1        0.1040
     83 C          31.6100   -4.8010   -9.4280 C.3     1  UNL1       -0.0274
     84 C          31.0560   -5.7520   -6.6440 C.2     1  UNL1        0.3322
     85 C          30.9550   -6.6580   -5.4800 C.2     1  UNL1        0.0225
     86 C          30.5610   -6.1560   -4.3020 C.2     1  UNL1       -0.0553
     87 C          30.3730   -6.9590   -3.1130 C.2     1  UNL1       -0.0654
     88 C          29.7650   -6.4720   -2.0200 C.2     1  UNL1       -0.0816
     89 C          29.5090   -7.2630   -0.7620 C.3     1  UNL1       -0.0081
     90 C          29.6870   -6.4480    0.5410 C.3     1  UNL1        0.0635
     91 C          28.5570   -5.4270    0.7220 C.3     1  UNL1        0.0276
     92 C          28.7970   -4.3330    1.7770 C.3     1  UNL1        0.1723
     93 C          28.6620   -4.8190    3.2160 C.3     1  UNL1        0.0282
@<TRIPOS>BOND
     1    42    83    1
     2    31    81    1
     3    32    82    1
     4    83    45    1
     5    83    82    1
     6    83    33    1
     7    81    82    1
     8    81    41    1
     9    81    80    1
    10    82    64    1
    11     5    80    1
    12    80    79    2
    13    64    84    1
    14    79     6    1
    15    79    78    1
    16     7    78    1
    17    84    66    2
    18    84    85    1
    19    78    77    2
    20     2    85    1
    21    85    86    2
    22    77     8    1
    23    77    76    1
    24     9    76    1
    25    86     1    1
    26    86    87    1
    27    76    75    2
    28     3    87    1
    29    87    88    2
    30    75    10    1
    31    75    74    1
    32    12    74    1
    33     4    88    1
    34    88    89    1
    35    74    73    2
    36    43    89    1
    37    89    34    1
    38    89    90    1
    39    73    11    1
    40    73    59    1
    41    44    91    1
    42    46    71    1
    43    20    58    1
    44    21    59    1
    45    59    56    1
    46    59    57    1
    47    58    63    1
    48    35    90    1
    49    90    91    1
    50    90    68    1
    51    40    71    1
    52    29    70    1
    53    56    61    1
    54    91    36    1
    55    91    92    1
    56    71    30    1
    57    71    69    1
    58    62    61    1
    59    62    69    1
    60    26    67    1
    61    61    63    1
    62    61    23    1
    63    72    92    1
    64    72    55    1
    65    39    57    1
    66    27    68    1
    67    70    92    1
    68    69    67    1
    69    69    28    1
    70    38    48    1
    71    63    24    1
    72    63    65    1
    73    57    55    1
    74    57    19    1
    75    92    93    1
    76    67    65    1
    77    67    60    1
    78    18    55    1
    79    55    51    1
    80    65    48    1
    81    65    25    1
    82    60    22    1
    83    48    14    1
    84    93    13    1
    85    93    37    1
    86    93    49    1
    87    51    17    1
    88    51    49    1
    89    51    53    1
    90    49    15    1
    91    49    50    1
    92    54    53    2
    93    53    52    1
    94    50    16    1
    95    52    47    1
