@<TRIPOS>MOLECULE
86.33365
 93 95 0 0 0
SMALL
GASTEIGER

@<TRIPOS>ATOM
      1 H          31.3410   -6.6080   -4.1010 H       1  UNL1        0.0620
      2 H          34.1520   -6.4730   -2.8290 H       1  UNL1        0.0689
      3 H          32.3960   -7.3870   -1.2680 H       1  UNL1        0.0615
      4 H          29.5910   -6.9590   -2.4530 H       1  UNL1        0.0573
      5 H          31.5050   -3.9840   -4.8750 H       1  UNL1        0.0573
      6 H          31.7220   -2.2410   -2.3510 H       1  UNL1        0.0614
      7 H          29.5590   -4.1740   -3.4840 H       1  UNL1        0.0617
      8 H          29.7660   -2.6300   -0.8330 H       1  UNL1        0.0618
      9 H          27.6470   -4.5390   -2.0830 H       1  UNL1        0.0618
     10 H          27.8140   -3.1350    0.6480 H       1  UNL1        0.0617
     11 H          25.8880   -3.7230    2.0660 H       1  UNL1        0.0598
     12 H          25.7190   -4.9720   -0.7300 H       1  UNL1        0.0615
     13 H          26.2170   -9.8010   -0.3080 H       1  UNL1        0.0342
     14 H          22.2810   -6.9620    7.3490 H       1  UNL1        0.1186
     15 H          24.3820  -10.3330    2.0700 H       1  UNL1        0.0604
     16 H          24.5880  -11.9400    0.4880 H       1  UNL1        0.2098
     17 H          23.7640   -8.6620   -0.4240 H       1  UNL1        0.0465
     18 H          24.2770   -7.6020    2.4100 H       1  UNL1        0.0607
     19 H          22.6570   -6.3500    0.9050 H       1  UNL1        0.0319
     20 H          24.5430   -4.5070    5.0460 H       1  UNL1        0.2101
     21 H          23.3900   -4.1870    1.3700 H       1  UNL1        0.0642
     22 H          19.8190   -4.9840    7.0420 H       1  UNL1        0.2100
     23 H          22.2430   -6.0540    3.0610 H       1  UNL1        0.0937
     24 H          23.5260   -6.7270    5.0850 H       1  UNL1        0.0660
     25 H          21.0690   -6.5650    5.3680 H       1  UNL1        0.0512
     26 H          21.5090   -3.6290    6.1450 H       1  UNL1        0.0635
     27 H          26.9970   -6.8870   -0.3690 H       1  UNL1        0.2098
     28 H          20.2610   -4.7980    3.5860 H       1  UNL1        0.0620
     29 H          26.8050   -8.0050    3.3010 H       1  UNL1        0.2128
     30 H          19.2310   -2.6490    4.2950 H       1  UNL1        0.0255
     31 H          33.4220   -1.7420   -4.1960 H       1  UNL1        0.0343
     32 H          35.4130   -3.0170   -4.4010 H       1  UNL1        0.0734
     33 H          33.8040   -4.1800   -2.0900 H       1  UNL1        0.0265
     34 H          29.7340   -6.4710    0.1530 H       1  UNL1        0.0332
     35 H          28.5490   -9.1590   -0.7240 H       1  UNL1        0.0598
     36 H          28.2930   -7.4020    1.7490 H       1  UNL1        0.0342
     37 H          26.5930  -10.7540    1.1230 H       1  UNL1        0.0342
     38 H          22.5430   -5.3930    7.5910 H       1  UNL1        0.1186
     39 H          23.9370   -6.1160   -0.2550 H       1  UNL1        0.0319
     40 H          20.2240   -2.4460    2.8370 H       1  UNL1        0.0255
     41 H          33.3450   -2.7180   -5.6540 H       1  UNL1        0.0343
     42 H          34.7470   -2.6880   -2.1080 H       1  UNL1        0.0265
     43 H          30.5740   -8.0260    0.2690 H       1  UNL1        0.0332
     44 H          28.6630   -9.1100    1.6940 H       1  UNL1        0.0342
     45 H          35.5510   -4.2640   -2.2770 H       1  UNL1        0.0265
     46 H          20.8470   -1.9080    4.3890 H       1  UNL1        0.0255
     47 H          20.6160   -9.2940    0.6430 H       1  UNL1        0.2951
     48 N          21.8340   -6.0500    7.2390 N.3     1  UNL1       -0.3229
     49 C          24.5590  -10.0540    1.0240 C.3     1  UNL1        0.0754
     50 O          24.1000  -11.1420    0.2170 O.3     1  UNL1       -0.3907
     51 C          23.7800   -8.7870    0.6660 C.3     1  UNL1        0.1084
     52 O          21.4750   -9.1670    0.1900 O.3     1  UNL1       -0.4803
     53 C          22.3660   -8.9340    1.1710 C.2     1  UNL1        0.3128
     54 O          21.9970   -8.8150    2.3300 O.2     1  UNL1       -0.2505
     55 C          24.4090   -7.5450    1.3220 C.3     1  UNL1        0.0799
     56 O          24.1470   -5.2030    3.0060 O.3     1  UNL1       -0.3413
     57 C          23.7440   -6.2440    0.8160 C.3     1  UNL1        0.0045
     58 O          23.9370   -4.8370    5.7400 O.3     1  UNL1       -0.3851
     59 C          24.1360   -4.9620    1.5910 C.3     1  UNL1        0.0826
     60 O          19.6640   -4.5270    6.1890 O.3     1  UNL1       -0.3876
     61 C          22.8400   -5.3010    3.5880 C.3     1  UNL1        0.1875
     62 O          22.1860   -4.0360    3.5220 O.3     1  UNL1       -0.3431
     63 C          23.0450   -5.7430    5.0560 C.3     1  UNL1        0.1234
     64 O          34.7260   -4.8730   -4.7260 O.3     1  UNL1       -0.4582
     65 C          21.6960   -5.7670    5.7870 C.3     1  UNL1        0.0646
     66 O          33.1680   -6.0190   -5.9140 O.2     1  UNL1       -0.2456
     67 C          20.9670   -4.4200    5.6090 C.3     1  UNL1        0.0987
     68 O          27.5160   -7.4240   -1.0000 O.3     1  UNL1       -0.3913
     69 C          20.8810   -4.0630    4.1170 C.3     1  UNL1        0.0863
     70 O          26.3850   -8.7770    2.8840 O.3     1  UNL1       -0.3643
     71 C          20.2520   -2.6900    3.9040 C.3     1  UNL1       -0.0361
     72 O          25.8130   -7.4710    1.0470 O.3     1  UNL1       -0.3444
     73 C          25.4710   -4.3300    1.2650 C.2     1  UNL1       -0.0555
     74 C          26.1340   -4.4070    0.1010 C.2     1  UNL1       -0.0633
     75 C          27.4030   -3.7550   -0.1450 C.2     1  UNL1       -0.0620
     76 C          28.0650   -3.9030   -1.3030 C.2     1  UNL1       -0.0618
     77 C          29.3400   -3.2810   -1.5920 C.2     1  UNL1       -0.0618
     78 C          29.9950   -3.5070   -2.7410 C.2     1  UNL1       -0.0621
     79 C          31.2860   -2.9410   -3.0590 C.2     1  UNL1       -0.0656
     80 C          31.9580   -3.2880   -4.1690 C.2     1  UNL1       -0.0805
     81 C          33.3180   -2.7730   -4.5590 C.3     1  UNL1        0.0026
     82 C          34.5370   -3.5910   -4.0700 C.3     1  UNL1        0.1040
     83 C          34.6620   -3.6860   -2.5510 C.3     1  UNL1       -0.0274
     84 C          33.6990   -5.7450   -4.8480 C.2     1  UNL1        0.3322
     85 C          33.3680   -6.3970   -3.5690 C.2     1  UNL1        0.0225
     86 C          32.0970   -6.7480   -3.3280 C.2     1  UNL1       -0.0553
     87 C          31.6450   -7.1850   -2.0280 C.2     1  UNL1       -0.0654
     88 C          30.3430   -7.2210   -1.7090 C.2     1  UNL1       -0.0816
     89 C          29.8370   -7.4600   -0.3130 C.3     1  UNL1       -0.0081
     90 C          28.4720   -8.1730   -0.2520 C.3     1  UNL1        0.0635
     91 C          28.0460   -8.3350    1.2200 C.3     1  UNL1        0.0276
     92 C          26.5570   -8.6100    1.4800 C.3     1  UNL1        0.1723
     93 C          26.0540   -9.8640    0.7750 C.3     1  UNL1        0.0282
@<TRIPOS>BOND
     1    66    84    2
     2    41    81    1
     3     5    80    1
     4    84    64    1
     5    84    85    1
     6    64    82    1
     7    81    31    1
     8    81    80    1
     9    81    82    1
    10    32    82    1
    11    80    79    2
    12     1    86    1
    13    82    83    1
    14    85    86    2
    15    85     2    1
    16     7    78    1
    17    86    87    1
    18    79    78    1
    19    79     6    1
    20    78    77    2
    21    83    45    1
    22    83    42    1
    23    83    33    1
    24     4    88    1
    25     9    76    1
    26    87    88    2
    27    87     3    1
    28    88    89    1
    29    77    76    1
    30    77     8    1
    31    76    75    2
    32    68    27    1
    33    68    90    1
    34    12    74    1
    35    35    90    1
    36    17    51    1
    37    89    90    1
    38    89    34    1
    39    89    43    1
    40    13    93    1
    41    39    57    1
    42    90    91    1
    43    75    74    1
    44    75    10    1
    45    74    73    2
    46    52    47    1
    47    52    53    1
    48    50    16    1
    49    50    49    1
    50    51    49    1
    51    51    53    1
    52    51    55    1
    53    93    49    1
    54    93    37    1
    55    93    92    1
    56    57    19    1
    57    57    55    1
    58    57    59    1
    59    49    15    1
    60    72    55    1
    61    72    92    1
    62    53    54    2
    63    91    92    1
    64    91    44    1
    65    91    36    1
    66    73    59    1
    67    73    11    1
    68    55    18    1
    69    21    59    1
    70    92    70    1
    71    59    56    1
    72    40    71    1
    73    70    29    1
    74    56    61    1
    75    23    61    1
    76    62    61    1
    77    62    69    1
    78    28    69    1
    79    61    63    1
    80    71    69    1
    81    71    30    1
    82    71    46    1
    83    69    67    1
    84    20    58    1
    85    63    24    1
    86    63    58    1
    87    63    65    1
    88    25    65    1
    89    67    65    1
    90    67    26    1
    91    67    60    1
    92    65    48    1
    93    60    22    1
    94    48    14    1
    95    48    38    1
