@<TRIPOS>MOLECULE
70.66440
 93 95 0 0 0
SMALL
GASTEIGER

@<TRIPOS>ATOM
      1 H          29.5180   -5.5680   -5.1400 H       1  UNL1        0.0620
      2 H          32.0040   -7.3170   -5.6800 H       1  UNL1        0.0689
      3 H          31.0680   -7.6580   -3.4270 H       1  UNL1        0.0615
      4 H          28.5570   -5.9610   -2.8960 H       1  UNL1        0.0573
      5 H          30.8650   -1.9630   -6.1500 H       1  UNL1        0.0573
      6 H          33.4720   -3.5650   -5.8280 H       1  UNL1        0.0614
      7 H          31.5750   -2.1340   -3.8140 H       1  UNL1        0.0617
      8 H          34.1630   -3.7650   -3.4760 H       1  UNL1        0.0618
      9 H          32.1050   -2.5560   -1.4800 H       1  UNL1        0.0618
     10 H          34.7300   -4.1090   -1.0820 H       1  UNL1        0.0617
     11 H          35.1810   -4.4730    1.3560 H       1  UNL1        0.0598
     12 H          32.4410   -3.1940    0.8170 H       1  UNL1        0.0615
     13 H          30.4530   -8.4410    3.1970 H       1  UNL1        0.0342
     14 H          36.4760   -0.5040    7.4640 H       1  UNL1        0.1186
     15 H          33.0310   -9.4630    1.9160 H       1  UNL1        0.0604
     16 H          31.8710  -10.9430    3.0940 H       1  UNL1        0.2098
     17 H          32.7550   -7.8910    4.5190 H       1  UNL1        0.0465
     18 H          33.8360   -6.8000    1.8500 H       1  UNL1        0.0607
     19 H          34.9050   -5.7710    3.8100 H       1  UNL1        0.0319
     20 H          34.9160   -1.0470    3.7970 H       1  UNL1        0.2101
     21 H          32.6780   -3.8180    3.0560 H       1  UNL1        0.0642
     22 H          33.5620   -0.2410    8.7260 H       1  UNL1        0.2100
     23 H          34.2840   -3.8460    5.6540 H       1  UNL1        0.0937
     24 H          36.1420   -2.1950    5.5390 H       1  UNL1        0.0660
     25 H          34.8860   -2.2450    7.6720 H       1  UNL1        0.0512
     26 H          33.0170   -0.1410    6.4510 H       1  UNL1        0.0635
     27 H          30.7310   -4.9870   -1.4460 H       1  UNL1        0.2098
     28 H          32.4740   -3.1090    7.0540 H       1  UNL1        0.0620
     29 H          32.0310   -6.6390   -0.0660 H       1  UNL1        0.2128
     30 H          30.4810   -1.6580    7.3690 H       1  UNL1        0.0255
     31 H          32.7280   -3.5020   -8.0950 H       1  UNL1        0.0343
     32 H          29.6750   -3.2580   -8.1640 H       1  UNL1        0.0734
     33 H          29.7850   -5.0390   -9.9030 H       1  UNL1        0.0265
     34 H          30.2310   -7.9850   -1.2530 H       1  UNL1        0.0332
     35 H          28.8300   -5.4400   -0.2430 H       1  UNL1        0.0598
     36 H          29.0690   -7.4780    1.3160 H       1  UNL1        0.0342
     37 H          30.6160   -9.3480    1.6950 H       1  UNL1        0.0342
     38 H          35.4140    0.4700    6.7550 H       1  UNL1        0.1186
     39 H          33.3480   -5.5480    4.5790 H       1  UNL1        0.0319
     40 H          30.3220   -2.6820    5.9260 H       1  UNL1        0.0255
     41 H          31.7890   -2.0810   -8.5230 H       1  UNL1        0.0343
     42 H          31.5410   -4.9240   -9.9190 H       1  UNL1        0.0265
     43 H          28.4980   -7.7470   -1.0800 H       1  UNL1        0.0332
     44 H          29.5940   -5.9150    1.8930 H       1  UNL1        0.0342
     45 H          30.5760   -3.5260  -10.4040 H       1  UNL1        0.0265
     46 H          30.7200   -0.9800    5.7400 H       1  UNL1        0.0255
     47 H          35.9740   -8.7310    5.0020 H       1  UNL1        0.2951
     48 N          35.4850   -0.2560    7.4800 N.3     1  UNL1       -0.3229
     49 C          32.4550   -9.1030    2.7770 C.3     1  UNL1        0.0754
     50 O          32.2360  -10.2240    3.6410 O.3     1  UNL1       -0.3907
     51 C          33.2290   -8.0240    3.5370 C.3     1  UNL1        0.1084
     52 O          35.0640   -8.3650    5.0130 O.3     1  UNL1       -0.4803
     53 C          34.6470   -8.4900    3.7370 C.2     1  UNL1        0.3128
     54 O          35.4150   -8.8930    2.8780 O.2     1  UNL1       -0.2505
     55 C          33.2350   -6.6980    2.7630 C.3     1  UNL1        0.0799
     56 O          34.5550   -3.2130    3.6970 O.3     1  UNL1       -0.3413
     57 C          33.8480   -5.5600    3.6020 C.3     1  UNL1        0.0045
     58 O          35.0610   -0.6820    4.6960 O.3     1  UNL1       -0.3851
     59 C          33.7220   -4.1480    2.9980 C.3     1  UNL1        0.0826
     60 O          32.8360   -0.8050    8.3850 O.3     1  UNL1       -0.3876
     61 C          34.1560   -2.9430    5.0440 C.3     1  UNL1        0.1875
     62 O          32.7990   -2.5090    5.0990 O.3     1  UNL1       -0.3431
     63 C          35.1060   -1.8360    5.5610 C.3     1  UNL1        0.1234
     64 O          30.3900   -4.9520   -7.3190 O.3     1  UNL1       -0.4582
     65 C          34.7010   -1.4140    6.9790 C.3     1  UNL1        0.0646
     66 O          32.3620   -6.0150   -7.8480 O.2     1  UNL1       -0.2456
     67 C          33.2010   -1.0580    7.0250 C.3     1  UNL1        0.0987
     68 O          30.8500   -5.3690   -0.5570 O.3     1  UNL1       -0.3913
     69 C          32.3720   -2.2090    6.4340 C.3     1  UNL1        0.0863
     70 O          32.0390   -7.5040    0.4020 O.3     1  UNL1       -0.3643
     71 C          30.8890   -1.8580    6.3740 C.3     1  UNL1       -0.0361
     72 O          31.8970   -6.3240    2.4020 O.3     1  UNL1       -0.3444
     73 C          34.1900   -4.0810    1.5660 C.2     1  UNL1       -0.0555
     74 C          33.4300   -3.5850    0.5780 C.2     1  UNL1       -0.0633
     75 C          33.8090   -3.5960   -0.8170 C.2     1  UNL1       -0.0620
     76 C          33.0240   -3.0630   -1.7660 C.2     1  UNL1       -0.0618
     77 C          33.2870   -3.1900   -3.1820 C.2     1  UNL1       -0.0618
     78 C          32.4560   -2.6980   -4.1130 C.2     1  UNL1       -0.0621
     79 C          32.6230   -2.9530   -5.5250 C.2     1  UNL1       -0.0656
     80 C          31.7280   -2.5560   -6.4440 C.2     1  UNL1       -0.0805
     81 C          31.7870   -2.9780   -7.8920 C.3     1  UNL1        0.0026
     82 C          30.5810   -3.8700   -8.2620 C.3     1  UNL1        0.1040
     83 C          30.6260   -4.3660   -9.7040 C.3     1  UNL1       -0.0274
     84 C          31.3840   -5.8500   -7.1340 C.2     1  UNL1        0.3322
     85 C          31.2220   -6.5870   -5.8620 C.2     1  UNL1        0.0225
     86 C          30.2750   -6.3250   -4.9480 C.2     1  UNL1       -0.0553
     87 C          30.2630   -6.9570   -3.6480 C.2     1  UNL1       -0.0654
     88 C          29.3630   -6.6640   -2.6960 C.2     1  UNL1       -0.0816
     89 C          29.4390   -7.2300   -1.2990 C.3     1  UNL1       -0.0081
     90 C          29.6830   -6.1300   -0.2420 C.3     1  UNL1        0.0635
     91 C          29.8410   -6.7100    1.1760 C.3     1  UNL1        0.0276
     92 C          31.2410   -7.2680    1.5490 C.3     1  UNL1        0.1723
     93 C          31.0960   -8.5820    2.3170 C.3     1  UNL1        0.0282
@<TRIPOS>BOND
     1    45    83    1
     2    42    83    1
     3    33    83    1
     4    83    82    1
     5    41    81    1
     6    82    32    1
     7    82    81    1
     8    82    64    1
     9    31    81    1
    10    81    80    1
    11    66    84    2
    12    64    84    1
    13    84    85    1
    14    80     5    1
    15    80    79    2
    16    85     2    1
    17    85    86    2
    18     6    79    1
    19    79    78    1
    20     1    86    1
    21    86    87    1
    22    78     7    1
    23    78    77    2
    24    87     3    1
    25    87    88    2
    26     8    77    1
    27    77    76    1
    28     4    88    1
    29    88    89    1
    30    76     9    1
    31    76    75    2
    32    27    68    1
    33    89    34    1
    34    89    43    1
    35    89    90    1
    36    10    75    1
    37    75    74    1
    38    68    90    1
    39    35    90    1
    40    90    91    1
    41    29    70    1
    42    70    92    1
    43    74    12    1
    44    74    73    2
    45    91    36    1
    46    91    92    1
    47    91    44    1
    48    11    73    1
    49    92    93    1
    50    92    72    1
    51    73    59    1
    52    37    93    1
    53    18    55    1
    54    15    49    1
    55    93    49    1
    56    93    13    1
    57    72    55    1
    58    55    51    1
    59    55    57    1
    60    49    51    1
    61    49    50    1
    62    54    53    2
    63    59    21    1
    64    59    57    1
    65    59    56    1
    66    16    50    1
    67    51    53    1
    68    51    17    1
    69    57    19    1
    70    57    39    1
    71    56    61    1
    72    53    52    1
    73    20    58    1
    74    58    63    1
    75    47    52    1
    76    61    62    1
    77    61    63    1
    78    61    23    1
    79    62    69    1
    80    24    63    1
    81    63    65    1
    82    46    71    1
    83    40    71    1
    84    71    69    1
    85    71    30    1
    86    69    67    1
    87    69    28    1
    88    26    67    1
    89    38    48    1
    90    65    67    1
    91    65    48    1
    92    65    25    1
    93    67    60    1
    94    14    48    1
    95    60    22    1
