@<TRIPOS>MOLECULE
65.08678
 93 95 0 0 0
SMALL
GASTEIGER

@<TRIPOS>ATOM
      1 H          29.5240   -5.6030   -5.2630 H       1  UNL1        0.0620
      2 H          32.3600   -4.7760   -4.3650 H       1  UNL1        0.0689
      3 H          31.1660   -6.1210   -2.6620 H       1  UNL1        0.0615
      4 H          28.2960   -6.8370   -3.4920 H       1  UNL1        0.0573
      5 H          31.6510   -0.2890   -5.6880 H       1  UNL1        0.0573
      6 H          29.2190   -2.0830   -6.2510 H       1  UNL1        0.0614
      7 H          29.9730   -0.3030   -3.8070 H       1  UNL1        0.0617
      8 H          27.7620   -2.3610   -4.3940 H       1  UNL1        0.0618
      9 H          28.3990   -0.6360   -1.8810 H       1  UNL1        0.0618
     10 H          26.3380   -2.8260   -2.5290 H       1  UNL1        0.0617
     11 H          24.9290   -3.3880   -0.6940 H       1  UNL1        0.0598
     12 H          26.9040   -1.1610    0.0410 H       1  UNL1        0.0615
     13 H          24.0400   -6.3910   -1.3550 H       1  UNL1        0.0342
     14 H          26.1470    2.2700    5.3080 H       1  UNL1        0.1186
     15 H          23.0700   -7.4850    1.3320 H       1  UNL1        0.0604
     16 H          21.6380   -7.6270   -0.3680 H       1  UNL1        0.2098
     17 H          23.1390   -4.5810    0.4010 H       1  UNL1        0.0465
     18 H          24.9930   -5.9210    2.4620 H       1  UNL1        0.0607
     19 H          26.3020   -3.8250    2.3700 H       1  UNL1        0.0319
     20 H          25.1660    0.7730    1.6950 H       1  UNL1        0.2101
     21 H          23.7750   -2.4860    1.2600 H       1  UNL1        0.0642
     22 H          23.1250    1.9880    6.2760 H       1  UNL1        0.2100
     23 H          25.0430   -1.7600    3.9800 H       1  UNL1        0.0937
     24 H          26.4490    0.2700    3.7000 H       1  UNL1        0.0660
     25 H          25.0010    0.2400    5.7100 H       1  UNL1        0.0512
     26 H          22.8440    1.5800    3.9880 H       1  UNL1        0.0635
     27 H          29.1580   -7.4000    1.0420 H       1  UNL1        0.2098
     28 H          22.9480   -1.2910    5.0900 H       1  UNL1        0.0620
     29 H          26.6820   -7.9590    1.2630 H       1  UNL1        0.2128
     30 H          20.6470   -0.3490    4.9750 H       1  UNL1        0.0255
     31 H          31.7420   -0.6550   -8.2090 H       1  UNL1        0.0343
     32 H          32.7790   -3.0590   -8.3500 H       1  UNL1        0.0734
     33 H          33.9930   -1.1380   -6.2960 H       1  UNL1        0.0265
     34 H          30.1030   -7.4930   -1.0590 H       1  UNL1        0.0332
     35 H          28.2570   -5.8960   -0.3380 H       1  UNL1        0.0598
     36 H          26.5170   -8.2140   -1.3260 H       1  UNL1        0.0342
     37 H          24.0020   -8.0770   -0.8470 H       1  UNL1        0.0342
     38 H          24.9760    2.8190    4.3540 H       1  UNL1        0.1186
     39 H          24.7550   -3.7330    3.1740 H       1  UNL1        0.0319
     40 H          20.9030   -1.6070    3.7470 H       1  UNL1        0.0255
     41 H          30.6680   -2.0220   -8.0620 H       1  UNL1        0.0343
     42 H          34.1820   -1.0070   -8.0620 H       1  UNL1        0.0265
     43 H          28.9100   -8.5620   -1.7320 H       1  UNL1        0.0332
     44 H          26.4430   -6.5230   -1.8600 H       1  UNL1        0.0342
     45 H          34.8380   -2.4000   -7.1760 H       1  UNL1        0.0265
     46 H          20.9150    0.0830    3.2690 H       1  UNL1        0.0255
     47 H          21.0730   -4.0650    2.9920 H       1  UNL1        0.2951
     48 N          25.1310    2.2590    5.2030 N.3     1  UNL1       -0.3229
     49 C          23.1040   -6.7130    0.5530 C.3     1  UNL1        0.0754
     50 O          21.8290   -6.7100   -0.0990 O.3     1  UNL1       -0.3907
     51 C          23.3650   -5.3350    1.1640 C.3     1  UNL1        0.1084
     52 O          21.6330   -4.0720    2.1880 O.3     1  UNL1       -0.4803
     53 C          22.4450   -5.1360    2.3390 C.2     1  UNL1        0.3128
     54 O          22.4190   -5.7940    3.3660 O.2     1  UNL1       -0.2505
     55 C          24.8200   -5.2200    1.6340 C.3     1  UNL1        0.0799
     56 O          25.3750   -1.3940    1.9650 O.3     1  UNL1       -0.3413
     57 C          25.2190   -3.8340    2.1860 C.3     1  UNL1        0.0045
     58 O          25.1430    1.3030    2.5190 O.3     1  UNL1       -0.3851
     59 C          24.8620   -2.5850    1.3520 C.3     1  UNL1        0.0826
     60 O          22.5990    1.2100    5.9920 O.3     1  UNL1       -0.3876
     61 C          24.7700   -1.0300    3.2090 C.3     1  UNL1        0.1875
     62 O          23.3520   -0.9580    3.0880 O.3     1  UNL1       -0.3431
     63 C          25.3620    0.3510    3.5820 C.3     1  UNL1        0.1234
     64 O          32.5670   -3.3590   -6.3050 O.3     1  UNL1       -0.4582
     65 C          24.7070    0.8760    4.8650 C.3     1  UNL1        0.0646
     66 O          30.7820   -4.4660   -7.2540 O.2     1  UNL1       -0.2456
     67 C          23.1710    0.8430    4.7330 C.3     1  UNL1        0.0987
     68 O          28.2800   -7.6630    0.7070 O.3     1  UNL1       -0.3913
     69 C          22.7120   -0.5590    4.3060 C.3     1  UNL1        0.0863
     70 O          25.7130   -7.8410    1.1510 O.3     1  UNL1       -0.3643
     71 C          21.2060   -0.6050    4.0700 C.3     1  UNL1       -0.0361
     72 O          25.7370   -5.5700    0.5840 O.3     1  UNL1       -0.3444
     73 C          25.4100   -2.6510   -0.0540 C.2     1  UNL1       -0.0555
     74 C          26.4010   -1.9050   -0.5710 C.2     1  UNL1       -0.0633
     75 C          26.8530   -2.0750   -1.9320 C.2     1  UNL1       -0.0620
     76 C          27.8690   -1.3820   -2.4680 C.2     1  UNL1       -0.0618
     77 C          28.3190   -1.6210   -3.8190 C.2     1  UNL1       -0.0618
     78 C          29.3880   -1.0270   -4.3680 C.2     1  UNL1       -0.0621
     79 C          29.8390   -1.3800   -5.6930 C.2     1  UNL1       -0.0656
     80 C          30.9970   -0.9680   -6.2290 C.2     1  UNL1       -0.0805
     81 C          31.4870   -1.4970   -7.5550 C.3     1  UNL1        0.0026
     82 C          32.6890   -2.4630   -7.4320 C.3     1  UNL1        0.1040
     83 C          33.9970   -1.7010   -7.2360 C.3     1  UNL1       -0.0274
     84 C          31.5490   -4.2530   -6.3310 C.2     1  UNL1        0.3322
     85 C          31.4890   -4.8890   -4.9990 C.2     1  UNL1        0.0225
     86 C          30.3830   -5.5340   -4.5980 C.2     1  UNL1       -0.0553
     87 C          30.2820   -6.1560   -3.2970 C.2     1  UNL1       -0.0654
     88 C          29.1790   -6.7830   -2.8590 C.2     1  UNL1       -0.0816
     89 C          29.1150   -7.5010   -1.5390 C.3     1  UNL1       -0.0081
     90 C          28.0810   -6.9610   -0.5310 C.3     1  UNL1        0.0635
     91 C          26.6290   -7.1730   -0.9970 C.3     1  UNL1        0.0276
     92 C          25.5740   -6.9000    0.0950 C.3     1  UNL1        0.1723
     93 C          24.1690   -7.0540   -0.4880 C.3     1  UNL1        0.0282
@<TRIPOS>BOND
     1    32    82    1
     2    31    81    1
     3    42    83    1
     4    41    81    1
     5    81    82    1
     6    81    80    1
     7    82    83    1
     8    82    64    1
     9    66    84    2
    10    83    45    1
    11    83    33    1
    12    84    64    1
    13    84    85    1
    14     6    79    1
    15    80    79    2
    16    80     5    1
    17    79    78    1
    18     1    86    1
    19    85    86    2
    20    85     2    1
    21    86    87    1
    22     8    77    1
    23    78    77    2
    24    78     7    1
    25    77    76    1
    26     4    88    1
    27    87    88    2
    28    87     3    1
    29    88    89    1
    30    10    75    1
    31    76    75    2
    32    76     9    1
    33    75    74    1
    34    44    91    1
    35    43    89    1
    36    89    34    1
    37    89    90    1
    38    13    93    1
    39    36    91    1
    40    91    90    1
    41    91    92    1
    42    37    93    1
    43    11    73    1
    44    74    73    2
    45    74    12    1
    46    90    35    1
    47    90    68    1
    48    93    92    1
    49    93    49    1
    50    16    50    1
    51    50    49    1
    52    73    59    1
    53    92    72    1
    54    92    70    1
    55    17    51    1
    56    49    51    1
    57    49    15    1
    58    72    55    1
    59    68    27    1
    60    70    29    1
    61    51    55    1
    62    51    53    1
    63    21    59    1
    64    59    56    1
    65    59    57    1
    66    55    57    1
    67    55    18    1
    68    20    58    1
    69    56    61    1
    70    57    19    1
    71    57    39    1
    72    52    53    1
    73    52    47    1
    74    53    54    2
    75    58    63    1
    76    62    61    1
    77    62    69    1
    78    61    63    1
    79    61    23    1
    80    46    71    1
    81    63    24    1
    82    63    65    1
    83    40    71    1
    84    26    67    1
    85    71    69    1
    86    71    30    1
    87    69    67    1
    88    69    28    1
    89    38    48    1
    90    67    65    1
    91    67    60    1
    92    65    48    1
    93    65    25    1
    94    48    14    1
    95    60    22    1
