@<TRIPOS>MOLECULE
74.92431
 93 95 0 0 0
SMALL
GASTEIGER

@<TRIPOS>ATOM
      1 H          30.9440   -4.3280   -4.2630 H       1  UNL1        0.0620
      2 H          32.3160   -6.7630   -5.5790 H       1  UNL1        0.0689
      3 H          31.7760   -7.0880   -3.0870 H       1  UNL1        0.0615
      4 H          29.7930   -4.9210   -2.1890 H       1  UNL1        0.0573
      5 H          29.3740   -3.5800   -6.9920 H       1  UNL1        0.0573
      6 H          27.5310   -5.8340   -5.9970 H       1  UNL1        0.0614
      7 H          28.3170   -3.0300   -4.8830 H       1  UNL1        0.0617
      8 H          26.7490   -5.3960   -3.6990 H       1  UNL1        0.0618
      9 H          27.6010   -2.6110   -2.5900 H       1  UNL1        0.0618
     10 H          26.2030   -5.0460   -1.3370 H       1  UNL1        0.0617
     11 H          25.6420   -4.6900    0.9940 H       1  UNL1        0.0598
     12 H          27.1880   -2.3220   -0.1880 H       1  UNL1        0.0615
     13 H          28.8280   -7.5540    3.9930 H       1  UNL1        0.0342
     14 H          30.1400    1.6550    4.0950 H       1  UNL1        0.1186
     15 H          29.8930   -5.2120    5.6510 H       1  UNL1        0.0604
     16 H          29.8670   -7.2210    6.6370 H       1  UNL1        0.2098
     17 H          26.9700   -5.9610    5.1560 H       1  UNL1        0.0465
     18 H          28.4210   -3.5750    3.8710 H       1  UNL1        0.0607
     19 H          25.9330   -3.4420    4.3930 H       1  UNL1        0.0319
     20 H          27.8890   -0.1770    1.2870 H       1  UNL1        0.2101
     21 H          25.1720   -2.5390    2.3910 H       1  UNL1        0.0642
     22 H          27.5780    3.1460    5.2230 H       1  UNL1        0.2100
     23 H          27.1400   -1.5330    4.3240 H       1  UNL1        0.0937
     24 H          29.2010   -0.6160    3.2740 H       1  UNL1        0.0660
     25 H          28.3400    0.6410    5.2290 H       1  UNL1        0.0512
     26 H          26.6710    2.2780    3.2420 H       1  UNL1        0.0635
     27 H          31.4050   -4.4880   -0.2430 H       1  UNL1        0.2098
     28 H          25.7490    0.1740    5.2900 H       1  UNL1        0.0620
     29 H          30.8850   -4.5740    2.2660 H       1  UNL1        0.2128
     30 H          24.1140    2.0190    4.9670 H       1  UNL1        0.0255
     31 H          29.3190   -4.8260   -9.0460 H       1  UNL1        0.0343
     32 H          30.3690   -6.8780   -6.9970 H       1  UNL1        0.0734
     33 H          30.9270   -6.6160   -9.9930 H       1  UNL1        0.0265
     34 H          31.0990   -7.2950   -0.7310 H       1  UNL1        0.0332
     35 H          29.1980   -5.0880    0.2630 H       1  UNL1        0.0598
     36 H          30.8060   -7.1660    1.8300 H       1  UNL1        0.0342
     37 H          30.5150   -7.1470    4.2990 H       1  UNL1        0.0342
     38 H          29.1650    2.3770    3.0410 H       1  UNL1        0.1186
     39 H          25.6700   -4.8320    3.3610 H       1  UNL1        0.0319
     40 H          23.5370    0.5000    4.2480 H       1  UNL1        0.0255
     41 H          28.3660   -6.1350   -8.3460 H       1  UNL1        0.0343
     42 H          29.9600   -7.8980   -9.2260 H       1  UNL1        0.0265
     43 H          29.3420   -7.2770   -0.9780 H       1  UNL1        0.0332
     44 H          29.0750   -7.3620    1.4630 H       1  UNL1        0.0342
     45 H          31.7000   -7.7490   -8.8930 H       1  UNL1        0.0265
     46 H          24.1770    1.7620    3.2070 H       1  UNL1        0.0255
     47 H          26.5970   -3.9560    7.8430 H       1  UNL1        0.2951
     48 N          29.2230    2.1020    4.0300 N.3     1  UNL1       -0.3229
     49 C          29.1110   -5.9300    5.3750 C.3     1  UNL1        0.0754
     50 O          28.9830   -6.8520    6.4630 O.3     1  UNL1       -0.3907
     51 C          27.7790   -5.2180    5.1490 C.3     1  UNL1        0.1084
     52 O          26.6100   -4.6430    7.1450 O.3     1  UNL1       -0.4803
     53 C          27.5590   -4.2410    6.2770 C.2     1  UNL1        0.3128
     54 O          28.1110   -3.1620    6.4220 O.2     1  UNL1       -0.2505
     55 C          27.7590   -4.4470    3.8130 C.3     1  UNL1        0.0799
     56 O          27.1590   -1.9760    2.2890 O.3     1  UNL1       -0.3413
     57 C          26.3240   -3.9630    3.5100 C.3     1  UNL1        0.0045
     58 O          28.2570    0.5220    1.8650 O.3     1  UNL1       -0.3851
     59 C          26.1650   -3.0020    2.3140 C.3     1  UNL1        0.0826
     60 O          26.7150    2.6810    5.2540 O.3     1  UNL1       -0.3876
     61 C          27.0620   -1.0260    3.3560 C.3     1  UNL1        0.1875
     62 O          25.8230   -0.3240    3.2820 O.3     1  UNL1       -0.3431
     63 C          28.2590   -0.0610    3.1860 C.3     1  UNL1        0.1234
     64 O          31.6260   -5.3680   -7.7830 O.3     1  UNL1       -0.4582
     65 C          28.1820    1.0610    4.2280 C.3     1  UNL1        0.0646
     66 O          32.4350   -3.7050   -6.4780 O.2     1  UNL1       -0.2456
     67 C          26.7940    1.7320    4.1870 C.3     1  UNL1        0.0987
     68 O          31.2190   -4.9480    0.5980 O.3     1  UNL1       -0.3913
     69 C          25.6930    0.6670    4.3100 C.3     1  UNL1        0.0863
     70 O          30.4650   -4.7700    3.1310 O.3     1  UNL1       -0.3643
     71 C          24.3030    1.2800    4.1820 C.3     1  UNL1       -0.0361
     72 O          28.2020   -5.2740    2.7290 O.3     1  UNL1       -0.3444
     73 C          26.1590   -3.7320    0.9890 C.2     1  UNL1       -0.0555
     74 C          26.6920   -3.2900   -0.1610 C.2     1  UNL1       -0.0633
     75 C          26.6450   -4.0530   -1.3870 C.2     1  UNL1       -0.0620
     76 C          27.1540   -3.6020   -2.5430 C.2     1  UNL1       -0.0618
     77 C          27.1990   -4.4070   -3.7440 C.2     1  UNL1       -0.0618
     78 C          27.8430   -4.0100   -4.8520 C.2     1  UNL1       -0.0621
     79 C          28.0290   -4.8670   -6.0000 C.2     1  UNL1       -0.0656
     80 C          28.8580   -4.5400   -7.0020 C.2     1  UNL1       -0.0805
     81 C          29.2000   -5.4500   -8.1510 C.3     1  UNL1        0.0026
     82 C          30.4880   -6.2600   -7.8930 C.3     1  UNL1        0.1040
     83 C          30.7760   -7.1870   -9.0700 C.3     1  UNL1       -0.0274
     84 C          31.9990   -4.8440   -6.5890 C.2     1  UNL1        0.3322
     85 C          31.9200   -5.7660   -5.4440 C.2     1  UNL1        0.0225
     86 C          31.3450   -5.3410   -4.3110 C.2     1  UNL1       -0.0553
     87 C          31.2030   -6.1650   -3.1330 C.2     1  UNL1       -0.0654
     88 C          30.3920   -5.8270   -2.1190 C.2     1  UNL1       -0.0816
     89 C          30.2280   -6.6410   -0.8610 C.3     1  UNL1       -0.0081
     90 C          30.0530   -5.7600    0.3910 C.3     1  UNL1        0.0635
     91 C          29.8680   -6.6260    1.6470 C.3     1  UNL1        0.0276
     92 C          29.5170   -5.8040    2.9050 C.3     1  UNL1        0.1723
     93 C          29.5210   -6.7130    4.1320 C.3     1  UNL1        0.0282
@<TRIPOS>BOND
     1    33    83    1
     2    42    83    1
     3    83    45    1
     4    83    82    1
     5    31    81    1
     6    41    81    1
     7    81    82    1
     8    81    80    1
     9    82    64    1
    10    82    32    1
    11    64    84    1
    12    80     5    1
    13    80    79    2
    14    84    66    2
    15    84    85    1
    16    79     6    1
    17    79    78    1
    18     2    85    1
    19    85    86    2
    20     7    78    1
    21    78    77    2
    22    86     1    1
    23    86    87    1
    24    77     8    1
    25    77    76    1
    26    87     3    1
    27    87    88    2
    28     9    76    1
    29    76    75    2
    30     4    88    1
    31    88    89    1
    32    75    10    1
    33    75    74    1
    34    43    89    1
    35    89    34    1
    36    89    90    1
    37    27    68    1
    38    12    74    1
    39    74    73    2
    40    35    90    1
    41    90    68    1
    42    90    91    1
    43    73    11    1
    44    73    59    1
    45    20    58    1
    46    44    91    1
    47    91    36    1
    48    91    92    1
    49    58    63    1
    50    29    70    1
    51    56    59    1
    52    56    61    1
    53    59    21    1
    54    59    57    1
    55    72    92    1
    56    72    55    1
    57    92    70    1
    58    92    93    1
    59    38    48    1
    60    63    24    1
    61    63    61    1
    62    63    65    1
    63    46    71    1
    64    26    67    1
    65    62    61    1
    66    62    69    1
    67    61    23    1
    68    39    57    1
    69    57    55    1
    70    57    19    1
    71    55    18    1
    72    55    51    1
    73    13    93    1
    74    48    14    1
    75    48    65    1
    76    93    37    1
    77    93    49    1
    78    71    40    1
    79    71    69    1
    80    71    30    1
    81    67    65    1
    82    67    69    1
    83    67    60    1
    84    65    25    1
    85    69    28    1
    86    51    17    1
    87    51    49    1
    88    51    53    1
    89    22    60    1
    90    49    15    1
    91    49    50    1
    92    53    54    2
    93    53    52    1
    94    50    16    1
    95    52    47    1
