@<TRIPOS>MOLECULE
78.38347
 93 95 0 0 0
SMALL
GASTEIGER

@<TRIPOS>ATOM
      1 H          31.7750   -5.8070   -4.4000 H       1  UNL1        0.0620
      2 H          31.1450   -8.7810   -4.9430 H       1  UNL1        0.0689
      3 H          32.4450   -6.7410   -2.1980 H       1  UNL1        0.0615
      4 H          29.8100   -8.2480   -2.6970 H       1  UNL1        0.0573
      5 H          27.2670   -5.3120   -6.8700 H       1  UNL1        0.0573
      6 H          29.8610   -4.3040   -5.5800 H       1  UNL1        0.0614
      7 H          26.9250   -4.4740   -4.5840 H       1  UNL1        0.0617
      8 H          29.5770   -3.5130   -3.3530 H       1  UNL1        0.0618
      9 H          26.7110   -3.8410   -2.1870 H       1  UNL1        0.0618
     10 H          29.4120   -2.9330   -1.0210 H       1  UNL1        0.0617
     11 H          29.3430   -2.6380    1.4170 H       1  UNL1        0.0598
     12 H          26.6170   -3.4550    0.2500 H       1  UNL1        0.0615
     13 H          29.1870   -7.9120    4.2070 H       1  UNL1        0.0342
     14 H          25.3410    2.1970    5.6090 H       1  UNL1        0.1186
     15 H          31.7680   -6.3170    4.5650 H       1  UNL1        0.0604
     16 H          31.4340   -7.9970    5.9910 H       1  UNL1        0.2098
     17 H          28.9770   -5.6130    5.5610 H       1  UNL1        0.0465
     18 H          30.3740   -4.2240    3.1920 H       1  UNL1        0.0607
     19 H          29.0000   -2.6890    4.3450 H       1  UNL1        0.0319
     20 H          25.9630   -0.0080    2.2930 H       1  UNL1        0.2101
     21 H          26.7280   -3.6870    2.6320 H       1  UNL1        0.0642
     22 H          22.7790    0.4630    6.3420 H       1  UNL1        0.2100
     23 H          26.7110   -1.9230    5.0240 H       1  UNL1        0.0937
     24 H          26.9060    0.4900    4.4600 H       1  UNL1        0.0660
     25 H          25.3450   -0.0620    6.3020 H       1  UNL1        0.0512
     26 H          23.1600   -0.3120    4.1620 H       1  UNL1        0.0635
     27 H          28.7940   -5.5070    0.0840 H       1  UNL1        0.2098
     28 H          24.5180   -2.5180    5.8240 H       1  UNL1        0.0620
     29 H          30.9030   -5.8740    1.1450 H       1  UNL1        0.2128
     30 H          22.1270   -2.9810    5.3290 H       1  UNL1        0.0255
     31 H          28.7530   -5.0560   -8.8890 H       1  UNL1        0.0343
     32 H          31.0580   -6.1220   -8.8260 H       1  UNL1        0.0734
     33 H          30.9100   -3.4300   -7.3810 H       1  UNL1        0.0265
     34 H          31.5520   -7.7540   -0.1850 H       1  UNL1        0.0332
     35 H          28.5050   -7.6060   -0.5590 H       1  UNL1        0.0598
     36 H          29.5740   -8.7340    1.6340 H       1  UNL1        0.0342
     37 H          30.8030   -8.3450    3.6560 H       1  UNL1        0.0342
     38 H          24.2560    1.9130    4.4580 H       1  UNL1        0.1186
     39 H          27.7680   -3.8770    4.6750 H       1  UNL1        0.0319
     40 H          23.2030   -4.0450    4.3980 H       1  UNL1        0.0255
     41 H          28.8420   -6.6320   -8.1320 H       1  UNL1        0.0343
     42 H          30.8380   -3.6750   -9.1380 H       1  UNL1        0.0265
     43 H          30.5270   -9.1670   -0.4650 H       1  UNL1        0.0332
     44 H          28.1410   -7.7310    1.6790 H       1  UNL1        0.0342
     45 H          32.2950   -4.1030   -8.2160 H       1  UNL1        0.0265
     46 H          22.4290   -2.6840    3.6010 H       1  UNL1        0.0255
     47 H          32.1640   -3.3950    6.2170 H       1  UNL1        0.2951
     48 N          24.5130    1.6320    5.4140 N.3     1  UNL1       -0.3229
     49 C          30.7390   -6.5660    4.8500 C.3     1  UNL1        0.0754
     50 O          30.8010   -7.2640    6.0990 O.3     1  UNL1       -0.3907
     51 C          29.8850   -5.3110    5.0190 C.3     1  UNL1        0.1084
     52 O          31.8730   -4.0800    5.5780 O.3     1  UNL1       -0.4803
     53 C          30.5800   -4.2870    5.8820 C.2     1  UNL1        0.3128
     54 O          30.0360   -3.5920    6.7280 O.2     1  UNL1       -0.2505
     55 C          29.4940   -4.6780    3.6660 C.3     1  UNL1        0.0799
     56 O          27.1650   -1.6900    3.0060 O.3     1  UNL1       -0.3413
     57 C          28.4710   -3.5430    3.8990 C.3     1  UNL1        0.0045
     58 O          25.4950    0.5040    2.9860 O.3     1  UNL1       -0.3851
     59 C          27.6020   -3.0310    2.7360 C.3     1  UNL1        0.0826
     60 O          22.7790   -0.5020    6.1700 O.3     1  UNL1       -0.3876
     61 C          26.2520   -1.5560    4.0980 C.3     1  UNL1        0.1875
     62 O          25.0490   -2.2750    3.8370 O.3     1  UNL1       -0.3431
     63 C          25.9740   -0.0400    4.2340 C.3     1  UNL1        0.1234
     64 O          31.2130   -6.0240   -6.7560 O.3     1  UNL1       -0.4582
     65 C          24.9250    0.2070    5.3240 C.3     1  UNL1        0.0646
     66 O          30.8760   -8.1940   -7.4310 O.2     1  UNL1       -0.2456
     67 C          23.6760   -0.6600    5.0670 C.3     1  UNL1        0.0987
     68 O          29.6370   -5.9460   -0.1390 O.3     1  UNL1       -0.3913
     69 C          24.0860   -2.1310    4.8920 C.3     1  UNL1        0.0863
     70 O          31.1100   -6.2530    2.0270 O.3     1  UNL1       -0.3643
     71 C          22.8870   -3.0060    4.5420 C.3     1  UNL1       -0.0361
     72 O          28.9630   -5.6650    2.7680 O.3     1  UNL1       -0.3444
     73 C          28.2960   -2.9300    1.4070 C.2     1  UNL1       -0.0555
     74 C          27.6720   -3.1850    0.2450 C.2     1  UNL1       -0.0633
     75 C          28.3510   -3.1800   -1.0300 C.2     1  UNL1       -0.0620
     76 C          27.7630   -3.5660   -2.1720 C.2     1  UNL1       -0.0618
     77 C          28.5120   -3.7350   -3.3980 C.2     1  UNL1       -0.0618
     78 C          27.9820   -4.2240   -4.5310 C.2     1  UNL1       -0.0621
     79 C          28.8020   -4.5190   -5.6860 C.2     1  UNL1       -0.0656
     80 C          28.3340   -5.0970   -6.8020 C.2     1  UNL1       -0.0805
     81 C          29.1260   -5.5800   -8.0000 C.3     1  UNL1        0.0026
     82 C          30.6740   -5.5180   -7.9930 C.3     1  UNL1        0.1040
     83 C          31.1990   -4.0990   -8.1950 C.3     1  UNL1       -0.0274
     84 C          31.1420   -7.3640   -6.5740 C.2     1  UNL1        0.3322
     85 C          31.3160   -7.7310   -5.1520 C.2     1  UNL1        0.0225
     86 C          31.5830   -6.8540   -4.1730 C.2     1  UNL1       -0.0553
     87 C          31.6270   -7.1820   -2.7660 C.2     1  UNL1       -0.0654
     88 C          30.6590   -7.8650   -2.1340 C.2     1  UNL1       -0.0816
     89 C          30.6130   -8.0890   -0.6420 C.3     1  UNL1       -0.0081
     90 C          29.4160   -7.3490   -0.0050 C.3     1  UNL1        0.0635
     91 C          29.2210   -7.7060    1.4800 C.3     1  UNL1        0.0276
     92 C          29.8700   -6.7490    2.5060 C.3     1  UNL1        0.1723
     93 C          30.1240   -7.4980    3.8130 C.3     1  UNL1        0.0282
@<TRIPOS>BOND
     1    42    83    1
     2    31    81    1
     3    32    82    1
     4    45    83    1
     5    83    82    1
     6    83    33    1
     7    41    81    1
     8    81    82    1
     9    81    80    1
    10    82    64    1
    11    66    84    2
    12     5    80    1
    13    80    79    2
    14    64    84    1
    15    84    85    1
    16    79     6    1
    17    79    78    1
    18    85     2    1
    19    85    86    2
    20     7    78    1
    21    78    77    2
    22     1    86    1
    23    86    87    1
    24    77     8    1
    25    77    76    1
    26    87     3    1
    27    87    88    2
    28     4    88    1
    29     9    76    1
    30    76    75    2
    31    88    89    1
    32    75    10    1
    33    75    74    1
    34    89    43    1
    35    89    34    1
    36    89    90    1
    37    35    90    1
    38    68    90    1
    39    68    27    1
    40    90    91    1
    41    74    12    1
    42    74    73    2
    43    29    70    1
    44    73    11    1
    45    73    59    1
    46    91    36    1
    47    91    44    1
    48    91    92    1
    49    70    92    1
    50    20    58    1
    51    92    72    1
    52    92    93    1
    53    21    59    1
    54    59    56    1
    55    59    57    1
    56    72    55    1
    57    58    63    1
    58    56    61    1
    59    18    55    1
    60    46    71    1
    61    37    93    1
    62    55    57    1
    63    55    51    1
    64    93    13    1
    65    93    49    1
    66    62    61    1
    67    62    69    1
    68    57    19    1
    69    57    39    1
    70    61    63    1
    71    61    23    1
    72    26    67    1
    73    63    24    1
    74    63    65    1
    75    40    71    1
    76    38    48    1
    77    71    69    1
    78    71    30    1
    79    15    49    1
    80    49    51    1
    81    49    50    1
    82    69    67    1
    83    69    28    1
    84    51    17    1
    85    51    53    1
    86    67    65    1
    87    67    60    1
    88    65    48    1
    89    65    25    1
    90    48    14    1
    91    52    53    1
    92    52    47    1
    93    53    54    2
    94    16    50    1
    95    60    22    1
