@<TRIPOS>MOLECULE
60.15565
 93 95 0 0 0
SMALL
GASTEIGER

@<TRIPOS>ATOM
      1 H          30.1200   -4.6630   -3.9680 H       1  UNL1        0.0620
      2 H          33.1760   -4.2120   -4.0260 H       1  UNL1        0.0689
      3 H          32.4250   -5.7330   -2.1620 H       1  UNL1        0.0615
      4 H          29.3580   -5.9140   -1.9850 H       1  UNL1        0.0573
      5 H          29.8950   -0.7750   -5.3420 H       1  UNL1        0.0573
      6 H          31.6480   -0.2630   -2.8650 H       1  UNL1        0.0614
      7 H          28.8630   -1.5770   -3.3010 H       1  UNL1        0.0617
      8 H          30.4910   -0.9080   -0.7750 H       1  UNL1        0.0618
      9 H          27.9550   -2.6240   -1.3150 H       1  UNL1        0.0618
     10 H          29.3100   -1.6830    1.2840 H       1  UNL1        0.0617
     11 H          28.0200   -2.5080    3.2760 H       1  UNL1        0.0598
     12 H          27.1000   -3.7730    0.6340 H       1  UNL1        0.0615
     13 H          29.9040   -8.1890    4.4650 H       1  UNL1        0.0342
     14 H          20.4720   -3.1550    4.6690 H       1  UNL1        0.1186
     15 H          30.9680   -5.8460    6.1140 H       1  UNL1        0.0604
     16 H          31.2590   -7.8630    6.9840 H       1  UNL1        0.2098
     17 H          28.0910   -6.8510    5.9810 H       1  UNL1        0.0465
     18 H          29.1480   -4.2730    4.6660 H       1  UNL1        0.0607
     19 H          26.8630   -4.0000    5.3670 H       1  UNL1        0.0319
     20 H          23.8090   -2.1700    2.6310 H       1  UNL1        0.2101
     21 H          26.4640   -5.0470    2.5350 H       1  UNL1        0.0642
     22 H          19.7730   -5.3860    2.5030 H       1  UNL1        0.2100
     23 H          24.3050   -5.2230    4.0810 H       1  UNL1        0.0937
     24 H          23.0550   -3.1600    4.7190 H       1  UNL1        0.0660
     25 H          21.6630   -5.1690    4.3130 H       1  UNL1        0.0512
     26 H          21.5020   -4.2770    1.3820 H       1  UNL1        0.0635
     27 H          30.8040   -4.3780    0.1990 H       1  UNL1        0.2098
     28 H          23.0260   -6.6510    2.6110 H       1  UNL1        0.0620
     29 H          31.1980   -4.8310    2.6410 H       1  UNL1        0.2128
     30 H          22.1460   -7.1090    0.3300 H       1  UNL1        0.0255
     31 H          32.7960    0.2130   -4.9030 H       1  UNL1        0.0343
     32 H          31.6940   -1.5170   -7.2040 H       1  UNL1        0.0734
     33 H          34.5480   -0.6500   -6.5150 H       1  UNL1        0.0265
     34 H          31.7010   -7.1630   -0.4030 H       1  UNL1        0.0332
     35 H          29.1880   -5.8350    0.7840 H       1  UNL1        0.0598
     36 H          31.5320   -7.3560    2.0420 H       1  UNL1        0.0342
     37 H          31.5640   -7.6050    4.5480 H       1  UNL1        0.0342
     38 H          20.5350   -2.7660    3.1120 H       1  UNL1        0.1186
     39 H          26.4240   -5.6020    4.8380 H       1  UNL1        0.0319
     40 H          23.9140   -6.9320    0.3250 H       1  UNL1        0.0255
     41 H          31.7430    0.7780   -6.2040 H       1  UNL1        0.0343
     42 H          33.5710   -0.0170   -7.8620 H       1  UNL1        0.0265
     43 H          30.0710   -7.8220   -0.5390 H       1  UNL1        0.0332
     44 H          29.8470   -7.9170    1.9760 H       1  UNL1        0.0342
     45 H          34.0780   -1.7210   -7.8270 H       1  UNL1        0.0265
     46 H          22.9100   -5.6150   -0.2620 H       1  UNL1        0.0255
     47 H          27.5790   -4.7970    8.5910 H       1  UNL1        0.2951
     48 N          20.4440   -3.5770    3.7390 N.3     1  UNL1       -0.3229
     49 C          30.2170   -6.6150    5.8980 C.3     1  UNL1        0.0754
     50 O          30.3210   -7.6100    6.9240 O.3     1  UNL1       -0.3907
     51 C          28.8070   -6.0210    5.9130 C.3     1  UNL1        0.1084
     52 O          27.5300   -5.4070    7.8240 O.3     1  UNL1       -0.4803
     53 C          28.6570   -5.1470    7.1310 C.2     1  UNL1        0.3128
     54 O          29.3980   -4.2440    7.4830 O.2     1  UNL1       -0.2505
     55 C          28.5360   -5.1850    4.6520 C.3     1  UNL1        0.0799
     56 O          25.3230   -3.5360    3.4160 O.3     1  UNL1       -0.3413
     57 C          27.0620   -4.7450    4.5850 C.3     1  UNL1        0.0045
     58 O          22.8770   -2.4010    2.8330 O.3     1  UNL1       -0.3851
     59 C          26.5770   -4.2040    3.2290 C.3     1  UNL1        0.0826
     60 O          20.4970   -5.9140    2.1050 O.3     1  UNL1       -0.3876
     61 C          24.1940   -4.4130    3.3490 C.3     1  UNL1        0.1875
     62 O          24.0740   -4.9600    2.0370 O.3     1  UNL1       -0.3431
     63 C          22.9580   -3.5510    3.7000 C.3     1  UNL1        0.1234
     64 O          32.7830   -2.3970   -5.6280 O.3     1  UNL1       -0.4582
     65 C          21.6780   -4.3820    3.5480 C.3     1  UNL1        0.0646
     66 O          30.7440   -3.3740   -6.0970 O.2     1  UNL1       -0.2456
     67 C          21.6310   -5.0440    2.1560 C.3     1  UNL1        0.0987
     68 O          31.0400   -4.9540    0.9530 O.3     1  UNL1       -0.3913
     69 C          22.9340   -5.8180    1.9010 C.3     1  UNL1        0.0863
     70 O          31.0830   -5.1980    3.5450 O.3     1  UNL1       -0.3643
     71 C          22.9680   -6.4060    0.4940 C.3     1  UNL1       -0.0361
     72 O          28.8520   -5.9330    3.4690 O.3     1  UNL1       -0.3444
     73 C          27.4910   -3.1820    2.6080 C.2     1  UNL1       -0.0555
     74 C          27.6720   -3.1080    1.2810 C.2     1  UNL1       -0.0633
     75 C          28.6140   -2.2200    0.6430 C.2     1  UNL1       -0.0620
     76 C          28.6710   -2.0920   -0.6900 C.2     1  UNL1       -0.0618
     77 C          29.6800   -1.3170   -1.3750 C.2     1  UNL1       -0.0618
     78 C          29.6760   -1.1620   -2.7070 C.2     1  UNL1       -0.0621
     79 C          30.7660   -0.5530   -3.4320 C.2     1  UNL1       -0.0656
     80 C          30.7680   -0.4620   -4.7710 C.2     1  UNL1       -0.0805
     81 C          31.9840   -0.0880   -5.5780 C.3     1  UNL1        0.0026
     82 C          32.4620   -1.2620   -6.4630 C.3     1  UNL1        0.1040
     83 C          33.7350   -0.8820   -7.2120 C.3     1  UNL1       -0.0274
     84 C          31.7890   -3.3110   -5.4710 C.2     1  UNL1        0.3322
     85 C          32.1360   -4.1670   -4.3190 C.2     1  UNL1        0.0225
     86 C          31.1530   -4.7790   -3.6420 C.2     1  UNL1       -0.0553
     87 C          31.3890   -5.5700   -2.4570 C.2     1  UNL1       -0.0654
     88 C          30.3980   -6.0780   -1.7080 C.2     1  UNL1       -0.0816
     89 C          30.6400   -6.8880   -0.4600 C.3     1  UNL1       -0.0081
     90 C          30.2400   -6.1380    0.8250 C.3     1  UNL1        0.0635
     91 C          30.4840   -7.0280    2.0570 C.3     1  UNL1        0.0276
     92 C          30.2260   -6.3220    3.4020 C.3     1  UNL1        0.1723
     93 C          30.5160   -7.2810    4.5570 C.3     1  UNL1        0.0282
@<TRIPOS>BOND
     1    42    83    1
     2    45    83    1
     3    83    33    1
     4    83    82    1
     5    32    82    1
     6    82    64    1
     7    82    81    1
     8    41    81    1
     9    66    84    2
    10    64    84    1
    11    81    31    1
    12    81    80    1
    13    84    85    1
    14     5    80    1
    15    80    79    2
    16    85     2    1
    17    85    86    2
    18     1    86    1
    19    86    87    1
    20    79     6    1
    21    79    78    1
    22     7    78    1
    23    78    77    2
    24    87     3    1
    25    87    88    2
    26     4    88    1
    27    88    89    1
    28    77     8    1
    29    77    76    1
    30     9    76    1
    31    76    75    2
    32    43    89    1
    33    89    34    1
    34    89    90    1
    35    46    71    1
    36    27    68    1
    37    40    71    1
    38    30    71    1
    39    71    69    1
    40    12    74    1
    41    75    74    1
    42    75    10    1
    43    35    90    1
    44    90    68    1
    45    90    91    1
    46    74    73    2
    47    26    67    1
    48    69    62    1
    49    69    67    1
    50    69    28    1
    51    44    91    1
    52    62    61    1
    53    36    91    1
    54    91    92    1
    55    60    67    1
    56    60    22    1
    57    67    65    1
    58    21    59    1
    59    73    59    1
    60    73    11    1
    61    20    58    1
    62    29    70    1
    63    58    63    1
    64    38    48    1
    65    59    56    1
    66    59    57    1
    67    61    56    1
    68    61    63    1
    69    61    23    1
    70    92    72    1
    71    92    70    1
    72    92    93    1
    73    72    55    1
    74    65    63    1
    75    65    48    1
    76    65    25    1
    77    63    24    1
    78    48    14    1
    79    13    93    1
    80    37    93    1
    81    93    49    1
    82    57    55    1
    83    57    39    1
    84    57    19    1
    85    55    18    1
    86    55    51    1
    87    49    51    1
    88    49    15    1
    89    49    50    1
    90    51    17    1
    91    51    53    1
    92    50    16    1
    93    53    54    2
    94    53    52    1
    95    52    47    1
