@<TRIPOS>MOLECULE
72.69117
 93 95 0 0 0
SMALL
GASTEIGER

@<TRIPOS>ATOM
      1 H          28.5300   -4.3300   -4.1910 H       1  UNL1        0.0620
      2 H          28.7800   -7.0130   -5.7030 H       1  UNL1        0.0689
      3 H          28.2520   -7.3000   -3.2680 H       1  UNL1        0.0615
      4 H          28.2810   -4.6060   -1.7820 H       1  UNL1        0.0573
      5 H          33.4530   -6.7390   -6.3080 H       1  UNL1        0.0573
      6 H          31.8770   -4.1670   -5.7330 H       1  UNL1        0.0614
      7 H          33.4630   -6.1470   -3.9300 H       1  UNL1        0.0617
      8 H          31.9520   -3.5190   -3.4100 H       1  UNL1        0.0618
      9 H          33.3270   -5.5750   -1.5130 H       1  UNL1        0.0618
     10 H          31.9510   -2.8600   -1.0850 H       1  UNL1        0.0617
     11 H          31.8520   -2.1880    1.1970 H       1  UNL1        0.0598
     12 H          33.0750   -4.9820    0.9020 H       1  UNL1        0.0615
     13 H          27.5610   -5.2510    1.9060 H       1  UNL1        0.0342
     14 H          34.5310   -8.2370    6.3760 H       1  UNL1        0.1186
     15 H          27.7420   -5.6810    4.9180 H       1  UNL1        0.0604
     16 H          25.7010   -5.3360    4.0940 H       1  UNL1        0.2098
     17 H          28.2720   -3.1150    3.3470 H       1  UNL1        0.0465
     18 H          30.4280   -4.8930    4.6310 H       1  UNL1        0.0607
     19 H          31.1270   -2.6560    4.6900 H       1  UNL1        0.0319
     20 H          34.7600   -5.7510    3.2040 H       1  UNL1        0.2101
     21 H          33.0140   -2.4460    3.3570 H       1  UNL1        0.0642
     22 H          36.0620   -6.1090    8.1810 H       1  UNL1        0.2100
     23 H          32.5210   -4.4490    5.4230 H       1  UNL1        0.0937
     24 H          33.1640   -6.7590    4.7470 H       1  UNL1        0.0660
     25 H          33.6810   -6.1490    7.0880 H       1  UNL1        0.0512
     26 H          36.3960   -5.1440    6.0720 H       1  UNL1        0.0635
     27 H          30.6700   -6.5480   -1.5850 H       1  UNL1        0.2098
     28 H          33.9790   -3.5310    7.0820 H       1  UNL1        0.0620
     29 H          30.5280   -7.4570    3.5990 H       1  UNL1        0.2128
     30 H          36.1620   -2.4970    7.6620 H       1  UNL1        0.0255
     31 H          32.2390   -6.8590   -8.3000 H       1  UNL1        0.0343
     32 H          31.0570   -4.0630   -7.9200 H       1  UNL1        0.0734
     33 H          30.4660   -6.2400   -9.9960 H       1  UNL1        0.0265
     34 H          27.9960   -7.5580   -0.8920 H       1  UNL1        0.0332
     35 H          29.9190   -5.3790    0.1300 H       1  UNL1        0.0598
     36 H          30.6710   -7.5070    1.5260 H       1  UNL1        0.0342
     37 H          27.2160   -6.7490    2.7740 H       1  UNL1        0.0342
     38 H          35.8730   -7.5680    5.7970 H       1  UNL1        0.1186
     39 H          30.4520   -2.2550    3.1330 H       1  UNL1        0.0319
     40 H          35.3190   -1.5750    6.4000 H       1  UNL1        0.0255
     41 H          33.1140   -5.3530   -8.5720 H       1  UNL1        0.0343
     42 H          31.3110   -4.7060  -10.3160 H       1  UNL1        0.0265
     43 H          27.4130   -6.1460   -0.0140 H       1  UNL1        0.0332
     44 H          29.0210   -8.0230    1.4000 H       1  UNL1        0.0342
     45 H          29.6010   -4.7200   -9.8270 H       1  UNL1        0.0265
     46 H          36.6670   -2.6120    5.9590 H       1  UNL1        0.0255
     47 H          28.1510   -1.6840    6.3870 H       1  UNL1        0.2951
     48 N          35.1950   -7.4840    6.5660 N.3     1  UNL1       -0.3229
     49 C          27.6360   -5.0470    4.0280 C.3     1  UNL1        0.0754
     50 O          26.2890   -4.5650    4.0110 O.3     1  UNL1       -0.3907
     51 C          28.5980   -3.8590    4.0870 C.3     1  UNL1        0.1084
     52 O          28.1870   -1.9460    5.4430 O.3     1  UNL1       -0.4803
     53 C          28.5350   -3.2470    5.4620 C.2     1  UNL1        0.3128
     54 O          28.8180   -3.7970    6.5140 O.2     1  UNL1       -0.2505
     55 C          30.0470   -4.2870    3.7990 C.3     1  UNL1        0.0799
     56 O          32.9700   -4.5070    3.3920 O.3     1  UNL1       -0.3413
     57 C          30.9730   -3.0540    3.6780 C.3     1  UNL1        0.0045
     58 O          34.9980   -6.2800    3.9930 O.3     1  UNL1       -0.3851
     59 C          32.3610   -3.2690    3.0370 C.3     1  UNL1        0.0826
     60 O          35.8830   -5.1520    8.0590 O.3     1  UNL1       -0.3876
     61 C          33.3810   -4.5920    4.7600 C.3     1  UNL1        0.1875
     62 O          34.3720   -3.6090    5.0510 O.3     1  UNL1       -0.3431
     63 C          33.9480   -6.0200    4.9470 C.3     1  UNL1        0.1234
     64 O          29.9810   -5.8210   -7.4360 O.3     1  UNL1       -0.4582
     65 C          34.5070   -6.1830    6.3660 C.3     1  UNL1        0.0646
     66 O          29.1040   -3.8470   -6.6300 O.2     1  UNL1       -0.2456
     67 C          35.4930   -5.0420    6.6870 C.3     1  UNL1        0.0987
     68 O          30.5480   -7.1010   -0.7910 O.3     1  UNL1       -0.3913
     69 C          34.8310   -3.6830    6.4080 C.3     1  UNL1        0.0863
     70 O          29.6710   -7.0390    3.7930 O.3     1  UNL1       -0.3643
     71 C          35.8040   -2.5300    6.6290 C.3     1  UNL1       -0.0361
     72 O          30.1240   -5.0790    2.6110 O.3     1  UNL1       -0.3444
     73 C          32.2730   -3.1350    1.5300 C.2     1  UNL1       -0.0555
     74 C          32.6490   -4.0290    0.6010 C.2     1  UNL1       -0.0633
     75 C          32.4540   -3.7870   -0.8130 C.2     1  UNL1       -0.0620
     76 C          32.8220   -4.6470   -1.7740 C.2     1  UNL1       -0.0618
     77 C          32.5280   -4.4130   -3.1720 C.2     1  UNL1       -0.0618
     78 C          32.8890   -5.2500   -4.1570 C.2     1  UNL1       -0.0621
     79 C          32.4960   -5.0390   -5.5340 C.2     1  UNL1       -0.0656
     80 C          32.8160   -5.8830   -6.5270 C.2     1  UNL1       -0.0805
     81 C          32.3320   -5.8180   -7.9610 C.3     1  UNL1        0.0026
     82 C          30.9780   -5.1190   -8.2070 C.3     1  UNL1        0.1040
     83 C          30.5740   -5.1990   -9.6740 C.3     1  UNL1       -0.0274
     84 C          29.2290   -5.0590   -6.6040 C.2     1  UNL1        0.3322
     85 C          28.7510   -5.9460   -5.5240 C.2     1  UNL1        0.0225
     86 C          28.4850   -5.4110   -4.3240 C.2     1  UNL1       -0.0553
     87 C          28.2710   -6.2180   -3.1460 C.2     1  UNL1       -0.0654
     88 C          28.2260   -5.6850   -1.9160 C.2     1  UNL1       -0.0816
     89 C          28.2200   -6.5100   -0.6530 C.3     1  UNL1       -0.0081
     90 C          29.5910   -6.4200    0.0430 C.3     1  UNL1        0.0635
     91 C          29.6480   -7.1210    1.4030 C.3     1  UNL1        0.0276
     92 C          29.3340   -6.2630    2.6420 C.3     1  UNL1        0.1723
     93 C          27.8670   -5.8670    2.7580 C.3     1  UNL1        0.0282
@<TRIPOS>BOND
     1    42    83    1
     2    33    83    1
     3    45    83    1
     4    83    82    1
     5    41    81    1
     6    31    81    1
     7    82    81    1
     8    82    32    1
     9    82    64    1
    10    81    80    1
    11    64    84    1
    12    66    84    2
    13    84    85    1
    14    80     5    1
    15    80    79    2
    16     6    79    1
    17     2    85    1
    18    79    78    1
    19    85    86    2
    20    86     1    1
    21    86    87    1
    22    78     7    1
    23    78    77    2
    24     8    77    1
    25     3    87    1
    26    77    76    1
    27    87    88    2
    28    88     4    1
    29    88    89    1
    30    76     9    1
    31    76    75    2
    32    27    68    1
    33    10    75    1
    34    34    89    1
    35    75    74    1
    36    68    90    1
    37    89    43    1
    38    89    90    1
    39    90    35    1
    40    90    91    1
    41    74    12    1
    42    74    73    2
    43    11    73    1
    44    44    91    1
    45    91    36    1
    46    91    92    1
    47    73    59    1
    48    13    93    1
    49    72    92    1
    50    72    55    1
    51    92    93    1
    52    92    70    1
    53    93    37    1
    54    93    49    1
    55    59    21    1
    56    59    56    1
    57    59    57    1
    58    39    57    1
    59    20    58    1
    60    17    51    1
    61    56    61    1
    62    29    70    1
    63    57    55    1
    64    57    19    1
    65    55    51    1
    66    55    18    1
    67    58    63    1
    68    50    49    1
    69    50    16    1
    70    49    51    1
    71    49    15    1
    72    51    53    1
    73    24    63    1
    74    61    63    1
    75    61    62    1
    76    61    23    1
    77    63    65    1
    78    62    69    1
    79    52    53    1
    80    52    47    1
    81    53    54    2
    82    38    48    1
    83    46    71    1
    84    26    67    1
    85    65    48    1
    86    65    67    1
    87    65    25    1
    88    14    48    1
    89    40    71    1
    90    69    71    1
    91    69    67    1
    92    69    28    1
    93    71    30    1
    94    67    60    1
    95    60    22    1
