@<TRIPOS>MOLECULE
70.52258
 93 95 0 0 0
SMALL
GASTEIGER

@<TRIPOS>ATOM
      1 H          28.3000   -7.6170   -4.5920 H       1  UNL1        0.0620
      2 H          27.8640   -4.5890   -4.1590 H       1  UNL1        0.0689
      3 H          27.6250   -7.7690   -2.2550 H       1  UNL1        0.0615
      4 H          29.3620   -5.2320   -2.0730 H       1  UNL1        0.0573
      5 H          31.3400   -8.8660   -6.7750 H       1  UNL1        0.0573
      6 H          31.0450   -5.8220   -6.5020 H       1  UNL1        0.0614
      7 H          32.6480   -7.9280   -4.8670 H       1  UNL1        0.0617
      8 H          32.0270   -4.9300   -4.5640 H       1  UNL1        0.0618
      9 H          33.6350   -6.9070   -2.7720 H       1  UNL1        0.0618
     10 H          32.6770   -3.9960   -2.4870 H       1  UNL1        0.0617
     11 H          32.9460   -3.1100   -0.3180 H       1  UNL1        0.0598
     12 H          34.3170   -5.8450   -0.6000 H       1  UNL1        0.0615
     13 H          31.5320   -7.1580    4.1490 H       1  UNL1        0.0342
     14 H          36.9240    1.4550    3.4150 H       1  UNL1        0.1186
     15 H          33.8420   -9.0320    3.4570 H       1  UNL1        0.0604
     16 H          32.9690   -9.2370    5.4950 H       1  UNL1        0.2098
     17 H          34.0250   -6.1350    4.3900 H       1  UNL1        0.0465
     18 H          34.5420   -7.0700    1.5090 H       1  UNL1        0.0607
     19 H          35.7100   -5.1600    1.4160 H       1  UNL1        0.0319
     20 H          34.5660   -0.5430    0.8640 H       1  UNL1        0.2101
     21 H          33.0480   -3.7610    2.0310 H       1  UNL1        0.0642
     22 H          34.5640    1.7040    5.5400 H       1  UNL1        0.2100
     23 H          35.2110   -2.6030    3.5140 H       1  UNL1        0.0937
     24 H          36.4770   -0.8360    2.2950 H       1  UNL1        0.0660
     25 H          35.9780   -0.3200    4.6610 H       1  UNL1        0.0512
     26 H          33.3500    0.9310    3.6900 H       1  UNL1        0.0635
     27 H          30.8750   -7.5040   -1.6080 H       1  UNL1        0.2098
     28 H          33.8110   -1.6960    5.2270 H       1  UNL1        0.0620
     29 H          32.0990   -8.4270    0.3700 H       1  UNL1        0.2128
     30 H          31.7050   -0.5460    5.8740 H       1  UNL1        0.0255
     31 H          29.3170   -8.7240   -7.9780 H       1  UNL1        0.0343
     32 H          29.5190   -5.6810   -8.2230 H       1  UNL1        0.0734
     33 H          27.2520   -7.6220   -8.9370 H       1  UNL1        0.0265
     34 H          28.3170   -7.3240   -0.0350 H       1  UNL1        0.0332
     35 H          31.0140   -5.8520   -0.0560 H       1  UNL1        0.0598
     36 H          29.9180   -8.0780    1.7430 H       1  UNL1        0.0342
     37 H          31.4310   -8.8400    3.6320 H       1  UNL1        0.0342
     38 H          35.4840    1.9510    2.9050 H       1  UNL1        0.1186
     39 H          35.2210   -4.6720    2.9880 H       1  UNL1        0.0319
     40 H          31.3850   -2.0100    4.9210 H       1  UNL1        0.0255
     41 H          30.4080   -7.8670   -9.0670 H       1  UNL1        0.0343
     42 H          28.2910   -6.7780  -10.1100 H       1  UNL1        0.0265
     43 H          28.5510   -5.6110    0.3290 H       1  UNL1        0.0332
     44 H          30.0840   -6.3740    2.2300 H       1  UNL1        0.0342
     45 H          27.1830   -5.8700   -9.0570 H       1  UNL1        0.0265
     46 H          31.2420   -0.4340    4.1590 H       1  UNL1        0.0255
     47 H          37.1530   -8.3820    3.5320 H       1  UNL1        0.2951
     48 N          35.9540    1.5440    3.7240 N.3     1  UNL1       -0.3229
     49 C          33.4390   -8.1370    3.9460 C.3     1  UNL1        0.0754
     50 O          33.4360   -8.3940    5.3560 O.3     1  UNL1       -0.3907
     51 C          34.3060   -6.9080    3.6610 C.3     1  UNL1        0.1084
     52 O          36.2000   -8.3450    3.3050 O.3     1  UNL1       -0.4803
     53 C          35.7680   -7.2090    3.8820 C.2     1  UNL1        0.3128
     54 O          36.5660   -6.4700    4.4400 O.2     1  UNL1       -0.2505
     55 C          34.1010   -6.3720    2.2330 C.3     1  UNL1        0.0799
     56 O          34.7040   -2.6290    1.4970 O.3     1  UNL1       -0.3413
     57 C          34.8110   -5.0080    2.0290 C.3     1  UNL1        0.0045
     58 O          34.8510    0.1250    1.5210 O.3     1  UNL1       -0.3851
     59 C          33.9680   -3.8640    1.4430 C.3     1  UNL1        0.0826
     60 O          33.9380    0.9590    5.6570 O.3     1  UNL1       -0.3876
     61 C          34.6870   -1.9840    2.7770 C.3     1  UNL1        0.1875
     62 O          33.3470   -1.7490    3.2080 O.3     1  UNL1       -0.3431
     63 C          35.4400   -0.6430    2.5930 C.3     1  UNL1        0.1234
     64 O          28.3260   -6.5970   -6.7450 O.3     1  UNL1       -0.4582
     65 C          35.3840    0.1810    3.8860 C.3     1  UNL1        0.0646
     66 O          28.2570   -4.3010   -6.6950 O.2     1  UNL1       -0.2456
     67 C          33.9290    0.3070    4.3840 C.3     1  UNL1        0.0987
     68 O          30.9180   -7.8090   -0.6800 O.3     1  UNL1       -0.3913
     69 C          33.2890   -1.0860    4.4770 C.3     1  UNL1        0.0863
     70 O          32.5390   -8.4800    1.2460 O.3     1  UNL1       -0.3643
     71 C          31.8240   -1.0070    4.8890 C.3     1  UNL1       -0.0361
     72 O          32.7070   -6.2420    1.9310 O.3     1  UNL1       -0.3444
     73 C          33.5400   -3.9660    0.0010 C.2     1  UNL1       -0.0555
     74 C          33.7540   -4.9590   -0.8780 C.2     1  UNL1       -0.0633
     75 C          33.1760   -4.9220   -2.2020 C.2     1  UNL1       -0.0620
     76 C          33.1670   -5.9650   -3.0460 C.2     1  UNL1       -0.0618
     77 C          32.4620   -5.8960   -4.3060 C.2     1  UNL1       -0.0618
     78 C          32.2530   -6.9460   -5.1140 C.2     1  UNL1       -0.0621
     79 C          31.4020   -6.8250   -6.2760 C.2     1  UNL1       -0.0656
     80 C          30.9740   -7.8660   -7.0060 C.2     1  UNL1       -0.0805
     81 C          29.9160   -7.8100   -8.0890 C.3     1  UNL1        0.0026
     82 C          28.9510   -6.6030   -8.0460 C.3     1  UNL1        0.1040
     83 C          27.8620   -6.7280   -9.1050 C.3     1  UNL1       -0.0274
     84 C          28.1750   -5.3900   -6.1490 C.2     1  UNL1        0.3322
     85 C          28.0150   -5.5260   -4.6840 C.2     1  UNL1        0.0225
     86 C          28.1490   -6.6920   -4.0350 C.2     1  UNL1       -0.0553
     87 C          28.1320   -6.8690   -2.6030 C.2     1  UNL1       -0.0654
     88 C          28.8090   -6.1050   -1.7310 C.2     1  UNL1       -0.0816
     89 C          28.9360   -6.4480   -0.2650 C.3     1  UNL1       -0.0081
     90 C          30.3990   -6.7390    0.1260 C.3     1  UNL1        0.0635
     91 C          30.5110   -7.1650    1.6010 C.3     1  UNL1        0.0276
     92 C          31.9630   -7.4520    2.0410 C.3     1  UNL1        0.1723
     93 C          31.9970   -7.9100    3.4970 C.3     1  UNL1        0.0282
@<TRIPOS>BOND
     1    42    83    1
     2    83    45    1
     3    83    33    1
     4    83    82    1
     5    41    81    1
     6    32    82    1
     7    81    82    1
     8    81    31    1
     9    81    80    1
    10    82    64    1
    11    80     5    1
    12    80    79    2
    13    64    84    1
    14    66    84    2
    15     6    79    1
    16    79    78    1
    17    84    85    1
    18    78     7    1
    19    78    77    2
    20    85     2    1
    21    85    86    2
    22     1    86    1
    23     8    77    1
    24    77    76    1
    25    86    87    1
    26    76     9    1
    27    76    75    2
    28    87     3    1
    29    87    88    2
    30    10    75    1
    31    75    74    1
    32     4    88    1
    33    88    89    1
    34    27    68    1
    35    74    12    1
    36    74    73    2
    37    68    90    1
    38    11    73    1
    39    89    34    1
    40    89    90    1
    41    89    43    1
    42    35    90    1
    43    73    59    1
    44    90    91    1
    45    29    70    1
    46    20    58    1
    47    70    92    1
    48    19    57    1
    49    59    56    1
    50    59    57    1
    51    59    21    1
    52    56    61    1
    53    18    55    1
    54    58    63    1
    55    91    36    1
    56    91    92    1
    57    91    44    1
    58    72    92    1
    59    72    55    1
    60    57    55    1
    61    57    39    1
    62    92    93    1
    63    55    51    1
    64    24    63    1
    65    63    61    1
    66    63    65    1
    67    61    62    1
    68    61    23    1
    69    38    48    1
    70    62    69    1
    71    52    47    1
    72    52    53    1
    73    14    48    1
    74    15    49    1
    75    93    37    1
    76    93    49    1
    77    93    13    1
    78    51    53    1
    79    51    49    1
    80    51    17    1
    81    26    67    1
    82    48    65    1
    83    53    54    2
    84    65    67    1
    85    65    25    1
    86    49    50    1
    87    46    71    1
    88    67    69    1
    89    67    60    1
    90    69    71    1
    91    69    28    1
    92    71    40    1
    93    71    30    1
    94    50    16    1
    95    22    60    1
