@<TRIPOS>MOLECULE
63.53125
 93 95 0 0 0
SMALL
GASTEIGER

@<TRIPOS>ATOM
      1 H          29.1710   -5.9460   -4.3830 H       1  UNL1        0.0620
      2 H          32.0660   -5.8570   -5.4390 H       1  UNL1        0.0689
      3 H          31.9190   -6.4120   -2.9960 H       1  UNL1        0.0615
      4 H          29.0000   -6.6720   -2.0620 H       1  UNL1        0.0573
      5 H          25.5380   -3.9710   -6.9050 H       1  UNL1        0.0573
      6 H          26.8750   -6.1850   -5.2540 H       1  UNL1        0.0614
      7 H          24.7680   -4.0560   -4.4290 H       1  UNL1        0.0617
      8 H          26.9920   -5.5840   -2.9610 H       1  UNL1        0.0618
      9 H          24.5880   -4.0020   -1.8210 H       1  UNL1        0.0618
     10 H          27.3620   -4.7990   -0.7590 H       1  UNL1        0.0617
     11 H          27.8070   -4.0690    1.4610 H       1  UNL1        0.0598
     12 H          24.8310   -3.8090    0.7340 H       1  UNL1        0.0615
     13 H          30.1850   -7.6640    4.3720 H       1  UNL1        0.0342
     14 H          28.4270    1.4890    6.2820 H       1  UNL1        0.1186
     15 H          30.7390   -4.9770    5.7110 H       1  UNL1        0.0604
     16 H          31.3890   -6.8200    6.8060 H       1  UNL1        0.2098
     17 H          28.0990   -6.5310    5.6210 H       1  UNL1        0.0465
     18 H          28.7880   -3.9350    4.1230 H       1  UNL1        0.0607
     19 H          26.3170   -4.5650    4.9740 H       1  UNL1        0.0319
     20 H          26.9210   -0.1670    2.9250 H       1  UNL1        0.2101
     21 H          25.2640   -3.5150    3.1010 H       1  UNL1        0.0642
     22 H          25.5570    1.5190    7.6380 H       1  UNL1        0.2100
     23 H          26.8350   -2.4890    5.4410 H       1  UNL1        0.0937
     24 H          28.3660   -0.6320    4.7940 H       1  UNL1        0.0660
     25 H          27.2000   -0.4000    6.9670 H       1  UNL1        0.0512
     26 H          24.9360    0.9980    5.4400 H       1  UNL1        0.0635
     27 H          30.5820   -4.5650   -0.5190 H       1  UNL1        0.2098
     28 H          24.9680   -1.7950    6.7290 H       1  UNL1        0.0620
     29 H          30.9400   -4.4400    2.0780 H       1  UNL1        0.2128
     30 H          22.7510   -0.6820    6.8430 H       1  UNL1        0.0255
     31 H          26.3880   -5.2550   -8.7650 H       1  UNL1        0.0343
     32 H          28.8420   -5.4730   -8.7860 H       1  UNL1        0.0734
     33 H          28.1220   -2.9090   -7.2440 H       1  UNL1        0.0265
     34 H          31.7460   -7.0960   -0.6960 H       1  UNL1        0.0332
     35 H          29.0930   -6.0540    0.4630 H       1  UNL1        0.0598
     36 H          31.6750   -6.9270    1.8570 H       1  UNL1        0.0342
     37 H          31.7090   -6.7830    4.3920 H       1  UNL1        0.0342
     38 H          27.2000    2.0660    5.4200 H       1  UNL1        0.1186
     39 H          26.3530   -5.7030    3.6390 H       1  UNL1        0.0319
     40 H          22.7470   -2.0250    5.6810 H       1  UNL1        0.0255
     41 H          26.9280   -6.5510   -7.7070 H       1  UNL1        0.0343
     42 H          27.8730   -3.1310   -8.9940 H       1  UNL1        0.0265
     43 H          30.3250   -8.1250   -0.4660 H       1  UNL1        0.0332
     44 H          30.1150   -7.7760    1.9430 H       1  UNL1        0.0342
     45 H          29.5020   -3.1410   -8.2970 H       1  UNL1        0.0265
     46 H          22.8180   -0.3710    5.0920 H       1  UNL1        0.0255
     47 H          27.3890   -4.5760    8.2680 H       1  UNL1        0.2951
     48 N          27.4080    1.5620    6.2910 N.3     1  UNL1       -0.3229
     49 C          30.1600   -5.9010    5.5910 C.3     1  UNL1        0.0754
     50 O          30.4230   -6.7190    6.7360 O.3     1  UNL1       -0.3907
     51 C          28.6640   -5.5960    5.5150 C.3     1  UNL1        0.1084
     52 O          27.4830   -5.2380    7.5520 O.3     1  UNL1       -0.4803
     53 C          28.3150   -4.6740    6.6560 C.2     1  UNL1        0.3128
     54 O          28.6730   -3.5130    6.7900 O.2     1  UNL1       -0.2505
     55 C          28.3130   -4.9230    4.1780 C.3     1  UNL1        0.0799
     56 O          26.9530   -2.3580    3.3770 O.3     1  UNL1       -0.3413
     57 C          26.7830   -4.7600    4.0020 C.3     1  UNL1        0.0045
     58 O          26.9920    0.4190    3.7070 O.3     1  UNL1       -0.3851
     59 C          26.3550   -3.6150    3.0510 C.3     1  UNL1        0.0826
     60 O          24.9350    0.7770    7.4810 O.3     1  UNL1       -0.3876
     61 C          26.5410   -1.8140    4.6350 C.3     1  UNL1        0.1875
     62 O          25.1270   -1.6270    4.6710 O.3     1  UNL1       -0.3431
     63 C          27.2820   -0.4680    4.8080 C.3     1  UNL1        0.1234
     64 O          29.0680   -5.3380   -6.7180 O.3     1  UNL1       -0.4582
     65 C          26.8430    0.1980    6.1190 C.3     1  UNL1        0.0646
     66 O          31.1170   -5.2630   -7.7510 O.2     1  UNL1       -0.2456
     67 C          25.3050    0.2850    6.1890 C.3     1  UNL1        0.0987
     68 O          30.7870   -4.8940    0.3770 O.3     1  UNL1       -0.3913
     69 C          24.6860   -1.0980    5.9290 C.3     1  UNL1        0.0863
     70 O          30.8810   -4.6790    3.0280 O.3     1  UNL1       -0.3643
     71 C          23.1630   -1.0340    5.8930 C.3     1  UNL1       -0.0361
     72 O          28.7900   -5.7280    3.0820 O.3     1  UNL1       -0.3444
     73 C          26.7440   -3.9080    1.6290 C.2     1  UNL1       -0.0555
     74 C          25.8920   -4.0010    0.5960 C.2     1  UNL1       -0.0633
     75 C          26.3430   -4.4220   -0.7090 C.2     1  UNL1       -0.0620
     76 C          25.5960   -4.4060   -1.8230 C.2     1  UNL1       -0.0618
     77 C          26.1130   -4.9510   -3.0570 C.2     1  UNL1       -0.0618
     78 C          25.6120   -4.7240   -4.2800 C.2     1  UNL1       -0.0621
     79 C          26.2330   -5.3240   -5.4370 C.2     1  UNL1       -0.0656
     80 C          26.1360   -4.8520   -6.6880 C.2     1  UNL1       -0.0805
     81 C          26.9190   -5.4600   -7.8280 C.3     1  UNL1        0.0026
     82 C          28.3790   -4.9620   -7.9320 C.3     1  UNL1        0.1040
     83 C          28.4650   -3.4500   -8.1310 C.3     1  UNL1       -0.0274
     84 C          30.4150   -5.4350   -6.7660 C.2     1  UNL1        0.3322
     85 C          30.9840   -5.7880   -5.4440 C.2     1  UNL1        0.0225
     86 C          30.2540   -6.0180   -4.3410 C.2     1  UNL1       -0.0553
     87 C          30.8330   -6.3770   -3.0640 C.2     1  UNL1       -0.0654
     88 C          30.0850   -6.6790   -1.9900 C.2     1  UNL1       -0.0816
     89 C          30.6490   -7.0950   -0.6540 C.3     1  UNL1       -0.0081
     90 C          30.1790   -6.1860    0.4990 C.3     1  UNL1        0.0635
     91 C          30.5850   -6.7890    1.8530 C.3     1  UNL1        0.0276
     92 C          30.2030   -5.9250    3.0730 C.3     1  UNL1        0.1723
     93 C          30.6200   -6.6560    4.3500 C.3     1  UNL1        0.0282
@<TRIPOS>BOND
     1    42    83    1
     2    32    82    1
     3    31    81    1
     4    45    83    1
     5    83    82    1
     6    83    33    1
     7    82    81    1
     8    82    64    1
     9    81    41    1
    10    81    80    1
    11    66    84    2
    12     5    80    1
    13    84    64    1
    14    84    85    1
    15    80    79    2
    16    85     2    1
    17    85    86    2
    18    79     6    1
    19    79    78    1
    20     7    78    1
    21     1    86    1
    22    86    87    1
    23    78    77    2
    24    87     3    1
    25    87    88    2
    26    77     8    1
    27    77    76    1
    28     4    88    1
    29    88    89    1
    30    76     9    1
    31    76    75    2
    32    10    75    1
    33    75    74    1
    34    34    89    1
    35    89    43    1
    36    89    90    1
    37    27    68    1
    38    68    90    1
    39    35    90    1
    40    90    91    1
    41    74    12    1
    42    74    73    2
    43    11    73    1
    44    73    59    1
    45    91    36    1
    46    91    44    1
    47    91    92    1
    48    29    70    1
    49    20    58    1
    50    70    92    1
    51    59    21    1
    52    59    56    1
    53    59    57    1
    54    92    72    1
    55    92    93    1
    56    72    55    1
    57    56    61    1
    58    39    57    1
    59    58    63    1
    60    57    55    1
    61    57    19    1
    62    18    55    1
    63    55    51    1
    64    93    13    1
    65    93    37    1
    66    93    49    1
    67    61    62    1
    68    61    63    1
    69    61    23    1
    70    62    69    1
    71    24    63    1
    72    63    65    1
    73    46    71    1
    74    38    48    1
    75    26    67    1
    76    51    49    1
    77    51    17    1
    78    51    53    1
    79    49    15    1
    80    49    50    1
    81    40    71    1
    82    71    69    1
    83    71    30    1
    84    69    67    1
    85    69    28    1
    86    65    67    1
    87    65    48    1
    88    65    25    1
    89    67    60    1
    90    14    48    1
    91    53    54    2
    92    53    52    1
    93    50    16    1
    94    60    22    1
    95    52    47    1
