@<TRIPOS>MOLECULE
67.03987
 93 95 0 0 0
SMALL
GASTEIGER

@<TRIPOS>ATOM
      1 H          29.3190   -4.9550   -4.0210 H       1  UNL1        0.0620
      2 H          31.7530   -6.2380   -5.4260 H       1  UNL1        0.0689
      3 H          31.7620   -6.4510   -2.8100 H       1  UNL1        0.0615
      4 H          28.9120   -5.8460   -1.8310 H       1  UNL1        0.0573
      5 H          26.9640   -4.7070   -7.2250 H       1  UNL1        0.0573
      6 H          27.2310   -7.4060   -5.7780 H       1  UNL1        0.0614
      7 H          26.1690   -4.6080   -4.9090 H       1  UNL1        0.0617
      8 H          26.5880   -7.2740   -3.4320 H       1  UNL1        0.0618
      9 H          25.6490   -4.4520   -2.5040 H       1  UNL1        0.0618
     10 H          26.1300   -7.1160   -1.0420 H       1  UNL1        0.0617
     11 H          25.6190   -6.9870    1.3260 H       1  UNL1        0.0598
     12 H          25.3210   -4.2710   -0.0640 H       1  UNL1        0.0615
     13 H          29.6530   -7.6190    4.5680 H       1  UNL1        0.0342
     14 H          26.2030    0.7970    4.2360 H       1  UNL1        0.1186
     15 H          29.2980   -4.8930    5.9120 H       1  UNL1        0.0604
     16 H          30.3020   -6.5010    7.1090 H       1  UNL1        0.2098
     17 H          27.2010   -7.1010    5.6110 H       1  UNL1        0.0465
     18 H          27.2560   -4.4650    4.0350 H       1  UNL1        0.0607
     19 H          25.0330   -5.6030    4.6330 H       1  UNL1        0.0319
     20 H          25.4550   -1.9390    1.3720 H       1  UNL1        0.2101
     21 H          23.9640   -5.3150    2.5950 H       1  UNL1        0.0642
     22 H          23.1140    1.0190    4.9120 H       1  UNL1        0.2100
     23 H          24.9170   -3.3890    4.4150 H       1  UNL1        0.0937
     24 H          26.4880   -1.6780    3.5280 H       1  UNL1        0.0660
     25 H          24.8900   -0.8780    5.2450 H       1  UNL1        0.0512
     26 H          22.9780   -0.2310    2.9330 H       1  UNL1        0.0635
     27 H          30.1180   -4.2230   -0.1460 H       1  UNL1        0.2098
     28 H          22.7880   -2.4520    5.0550 H       1  UNL1        0.0620
     29 H          29.8420   -4.2340    2.4100 H       1  UNL1        0.2128
     30 H          20.5760   -1.5480    4.3700 H       1  UNL1        0.0255
     31 H          27.2870   -6.3830   -9.1210 H       1  UNL1        0.0343
     32 H          29.7550   -6.5250   -9.3150 H       1  UNL1        0.0734
     33 H          28.7290   -3.7410   -8.6410 H       1  UNL1        0.0265
     34 H          31.4680   -6.7100   -0.3500 H       1  UNL1        0.0332
     35 H          28.6670   -5.8760    0.6110 H       1  UNL1        0.0598
     36 H          31.1780   -6.4760    2.2550 H       1  UNL1        0.0342
     37 H          30.8710   -6.3600    4.7550 H       1  UNL1        0.0342
     38 H          25.1750    0.9700    3.0120 H       1  UNL1        0.1186
     39 H          25.5450   -6.9870    3.6900 H       1  UNL1        0.0319
     40 H          20.8340   -3.1890    3.7400 H       1  UNL1        0.0255
     41 H          28.0520   -7.4980   -7.9940 H       1  UNL1        0.0343
     42 H          28.8300   -4.5320  -10.2090 H       1  UNL1        0.0265
     43 H          30.0450   -7.7740   -0.3700 H       1  UNL1        0.0332
     44 H          29.8450   -7.6400    2.0550 H       1  UNL1        0.0342
     45 H          30.3130   -4.0850   -9.3370 H       1  UNL1        0.0265
     46 H          21.0000   -1.8120    2.6620 H       1  UNL1        0.0255
     47 H          25.8170   -5.3010    8.1120 H       1  UNL1        0.2951
     48 N          25.2030    0.7840    4.0230 N.3     1  UNL1       -0.3229
     49 C          29.0120   -5.9390    5.7480 C.3     1  UNL1        0.0754
     50 O          29.3570   -6.6610    6.9350 O.3     1  UNL1       -0.3907
     51 C          27.5080   -6.0530    5.4990 C.3     1  UNL1        0.1084
     52 O          26.2030   -5.9530    7.4910 O.3     1  UNL1       -0.4803
     53 C          26.7850   -5.2160    6.5260 C.2     1  UNL1        0.3128
     54 O          26.6610   -4.0010    6.5160 O.2     1  UNL1       -0.2505
     55 C          27.1280   -5.5520    4.0920 C.3     1  UNL1        0.0799
     56 O          25.4100   -3.8390    2.4400 O.3     1  UNL1       -0.3413
     57 C          25.6560   -5.8980    3.7800 C.3     1  UNL1        0.0045
     58 O          25.3550   -1.1330    1.9190 O.3     1  UNL1       -0.3851
     59 C          25.0570   -5.2200    2.5290 C.3     1  UNL1        0.0826
     60 O          22.5480    0.2180    4.8890 O.3     1  UNL1       -0.3876
     61 C          24.7610   -3.0010    3.4030 C.3     1  UNL1        0.1875
     62 O          23.3640   -2.9370    3.1270 O.3     1  UNL1       -0.3431
     63 C          25.4220   -1.6080    3.2800 C.3     1  UNL1        0.1234
     64 O          30.2250   -5.9760   -7.4360 O.3     1  UNL1       -0.4582
     65 C          24.7090   -0.6060    4.1970 C.3     1  UNL1        0.0646
     66 O          29.6130   -3.9880   -6.4230 O.2     1  UNL1       -0.2456
     67 C          23.1900   -0.6320    3.9330 C.3     1  UNL1        0.0987
     68 O          30.2640   -4.5930    0.7460 O.3     1  UNL1       -0.3913
     69 C          22.6650   -2.0730    4.0320 C.3     1  UNL1        0.0863
     70 O          29.6220   -4.5170    3.3230 O.3     1  UNL1       -0.3643
     71 C          21.1820   -2.1520    3.6870 C.3     1  UNL1       -0.0361
     72 O          27.9540   -6.1590    3.0900 O.3     1  UNL1       -0.3444
     73 C          25.4440   -5.9160    1.2440 C.2     1  UNL1       -0.0555
     74 C          25.5300   -5.3340    0.0360 C.2     1  UNL1       -0.0633
     75 C          25.8740   -6.0650   -1.1630 C.2     1  UNL1       -0.0620
     76 C          25.9050   -5.5030   -2.3800 C.2     1  UNL1       -0.0618
     77 C          26.3120   -6.2300   -3.5640 C.2     1  UNL1       -0.0618
     78 C          26.4210   -5.6580   -4.7730 C.2     1  UNL1       -0.0621
     79 C          26.9560   -6.3620   -5.9180 C.2     1  UNL1       -0.0656
     80 C          27.2110   -5.7580   -7.0900 C.2     1  UNL1       -0.0805
     81 C          27.9260   -6.4330   -8.2310 C.3     1  UNL1        0.0026
     82 C          29.3210   -5.8530   -8.5630 C.3     1  UNL1        0.1040
     83 C          29.2970   -4.4740   -9.2200 C.3     1  UNL1       -0.0274
     84 C          30.1820   -5.0650   -6.4350 C.2     1  UNL1        0.3322
     85 C          30.8580   -5.6560   -5.2630 C.2     1  UNL1        0.0225
     86 C          30.2540   -5.5150   -4.0760 C.2     1  UNL1       -0.0553
     87 C          30.7380   -6.0870   -2.8420 C.2     1  UNL1       -0.0654
     88 C          29.9470   -6.1780   -1.7630 C.2     1  UNL1       -0.0816
     89 C          30.3740   -6.7300   -0.4290 C.3     1  UNL1       -0.0081
     90 C          29.7540   -5.9340    0.7350 C.3     1  UNL1        0.0635
     91 C          30.0970   -6.5730    2.0880 C.3     1  UNL1        0.0276
     92 C          29.3500   -5.9100    3.2630 C.3     1  UNL1        0.1723
     93 C          29.8010   -6.5310    4.5840 C.3     1  UNL1        0.0282
@<TRIPOS>BOND
     1    42    83    1
     2    45    83    1
     3    32    82    1
     4    83    33    1
     5    83    82    1
     6    31    81    1
     7    82    81    1
     8    82    64    1
     9    81    41    1
    10    81    80    1
    11    64    84    1
    12     5    80    1
    13    80    79    2
    14    84    66    2
    15    84    85    1
    16    79     6    1
    17    79    78    1
    18     2    85    1
    19    85    86    2
    20     7    78    1
    21    78    77    2
    22    86     1    1
    23    86    87    1
    24    77     8    1
    25    77    76    1
    26    87     3    1
    27    87    88    2
    28     9    76    1
    29    76    75    2
    30     4    88    1
    31    88    89    1
    32    75    10    1
    33    75    74    1
    34    89    43    1
    35    89    34    1
    36    89    90    1
    37    27    68    1
    38    12    74    1
    39    74    73    2
    40    35    90    1
    41    90    68    1
    42    90    91    1
    43    73    11    1
    44    73    59    1
    45    20    58    1
    46    58    63    1
    47    44    91    1
    48    91    36    1
    49    91    92    1
    50    29    70    1
    51    56    59    1
    52    56    61    1
    53    59    21    1
    54    59    57    1
    55    46    71    1
    56    26    67    1
    57    38    48    1
    58    72    92    1
    59    72    55    1
    60    62    61    1
    61    62    69    1
    62    92    70    1
    63    92    93    1
    64    63    61    1
    65    63    24    1
    66    63    65    1
    67    61    23    1
    68    71    40    1
    69    71    69    1
    70    71    30    1
    71    39    57    1
    72    57    55    1
    73    57    19    1
    74    67    69    1
    75    67    65    1
    76    67    60    1
    77    48    65    1
    78    48    14    1
    79    69    28    1
    80    18    55    1
    81    55    51    1
    82    65    25    1
    83    13    93    1
    84    93    37    1
    85    93    49    1
    86    60    22    1
    87    51    17    1
    88    51    49    1
    89    51    53    1
    90    49    15    1
    91    49    50    1
    92    54    53    2
    93    53    52    1
    94    50    16    1
    95    52    47    1
