@<TRIPOS>MOLECULE
60.77829
 93 95 0 0 0
SMALL
GASTEIGER

@<TRIPOS>ATOM
      1 H          29.7280   -6.2730   -4.5410 H       1  UNL1        0.0620
      2 H          32.5780   -7.2050   -5.2810 H       1  UNL1        0.0689
      3 H          32.0750   -7.3830   -2.8280 H       1  UNL1        0.0615
      4 H          29.1460   -6.6730   -2.2040 H       1  UNL1        0.0573
      5 H          27.7710   -3.3040   -6.9030 H       1  UNL1        0.0573
      6 H          27.0760   -6.0210   -5.6440 H       1  UNL1        0.0614
      7 H          27.1310   -3.1150   -4.5220 H       1  UNL1        0.0617
      8 H          26.6230   -5.8780   -3.2670 H       1  UNL1        0.0618
      9 H          26.8350   -3.0070   -2.0800 H       1  UNL1        0.0618
     10 H          26.3130   -5.7770   -0.8470 H       1  UNL1        0.0617
     11 H          25.9150   -5.6570    1.5480 H       1  UNL1        0.0598
     12 H          26.6780   -2.9330    0.3650 H       1  UNL1        0.0615
     13 H          30.1920   -7.4620    4.4660 H       1  UNL1        0.0342
     14 H          28.4910    1.7940    4.4010 H       1  UNL1        0.1186
     15 H          30.7560   -4.6320    5.4730 H       1  UNL1        0.0604
     16 H          31.5220   -6.3300    6.7200 H       1  UNL1        0.2098
     17 H          28.1680   -6.2460    5.7330 H       1  UNL1        0.0465
     18 H          28.6250   -3.8320    3.8830 H       1  UNL1        0.0607
     19 H          26.2960   -4.3920    4.9710 H       1  UNL1        0.0319
     20 H          26.5380   -0.6510    1.8420 H       1  UNL1        0.2101
     21 H          25.0090   -3.8140    3.1040 H       1  UNL1        0.0642
     22 H          25.8180    2.2650    6.0420 H       1  UNL1        0.2100
     23 H          26.8410   -2.2370    4.8470 H       1  UNL1        0.0937
     24 H          28.2530   -0.6450    3.5540 H       1  UNL1        0.0660
     25 H          27.3770    0.1900    5.7170 H       1  UNL1        0.0512
     26 H          24.9250    1.1850    4.1630 H       1  UNL1        0.0635
     27 H          30.6200   -4.8340   -0.6970 H       1  UNL1        0.2098
     28 H          25.1500   -1.1580    6.1460 H       1  UNL1        0.0620
     29 H          30.8210   -4.4820    1.8420 H       1  UNL1        0.2128
     30 H          22.9560    0.0060    6.2390 H       1  UNL1        0.0255
     31 H          27.6320   -4.7490   -8.9490 H       1  UNL1        0.0343
     32 H          29.7960   -6.0780   -8.9300 H       1  UNL1        0.0734
     33 H          30.1670   -3.3110   -7.6300 H       1  UNL1        0.0265
     34 H          31.5720   -7.5980   -0.5170 H       1  UNL1        0.0332
     35 H          29.0340   -6.1060    0.3850 H       1  UNL1        0.0598
     36 H          31.5450   -7.0150    1.8830 H       1  UNL1        0.0342
     37 H          31.6960   -6.5600    4.3100 H       1  UNL1        0.0342
     38 H          27.1590    2.1500    3.5740 H       1  UNL1        0.1186
     39 H          26.2910   -5.8120    3.9450 H       1  UNL1        0.0319
     40 H          22.8120   -1.6010    5.4960 H       1  UNL1        0.0255
     41 H          27.6010   -6.2030   -7.9570 H       1  UNL1        0.0343
     42 H          29.8450   -3.5670   -9.3640 H       1  UNL1        0.0265
     43 H          29.9680   -8.3270   -0.3820 H       1  UNL1        0.0332
     44 H          29.9530   -7.7950    2.0200 H       1  UNL1        0.0342
     45 H          31.3340   -4.1680   -8.6170 H       1  UNL1        0.0265
     46 H          22.7900   -0.1710    4.4760 H       1  UNL1        0.0255
     47 H          27.5930   -3.9890    8.1650 H       1  UNL1        0.2951
     48 N          27.4800    1.8930    4.5170 N.3     1  UNL1       -0.3229
     49 C          30.1980   -5.5760    5.4900 C.3     1  UNL1        0.0754
     50 O          30.5510   -6.2550    6.7000 O.3     1  UNL1       -0.3907
     51 C          28.6940   -5.3190    5.4690 C.3     1  UNL1        0.1084
     52 O          27.6800   -4.7440    7.5470 O.3     1  UNL1       -0.4803
     53 C          28.3820   -4.2650    6.5020 C.2     1  UNL1        0.3128
     54 O          28.6610   -3.0770    6.4370 O.2     1  UNL1       -0.2505
     55 C          28.2260   -4.8340    4.0830 C.3     1  UNL1        0.0799
     56 O          26.6700   -2.6240    2.8140 O.3     1  UNL1       -0.3413
     57 C          26.6840   -4.7890    4.0260 C.3     1  UNL1        0.0045
     58 O          26.7420    0.1200    2.4100 O.3     1  UNL1       -0.3851
     59 C          26.0820   -3.9240    2.8990 C.3     1  UNL1        0.0826
     60 O          25.1850    1.5270    6.1700 O.3     1  UNL1       -0.3876
     61 C          26.4330   -1.7780    3.9440 C.3     1  UNL1        0.1875
     62 O          25.0350   -1.5520    4.1160 O.3     1  UNL1       -0.3431
     63 C          27.1790   -0.4530    3.6620 C.3     1  UNL1        0.1234
     64 O          30.0350   -5.8510   -6.8700 O.3     1  UNL1       -0.4582
     65 C          26.9090    0.5490    4.7910 C.3     1  UNL1        0.0646
     66 O          32.0200   -6.6130   -7.7340 O.2     1  UNL1       -0.2456
     67 C          25.3920    0.6920    5.0270 C.3     1  UNL1        0.0987
     68 O          30.8280   -5.1160    0.2150 O.3     1  UNL1       -0.3913
     69 C          24.7590   -0.6930    5.2310 C.3     1  UNL1        0.0863
     70 O          30.7340   -4.6060    2.8120 O.3     1  UNL1       -0.3643
     71 C          23.2430   -0.6010    5.3750 C.3     1  UNL1       -0.0361
     72 O          28.6840   -5.7230    3.0500 O.3     1  UNL1       -0.3444
     73 C          26.1620   -4.5980    1.5480 C.2     1  UNL1       -0.0555
     74 C          26.4560   -3.9980    0.3830 C.2     1  UNL1       -0.0633
     75 C          26.4740   -4.7020   -0.8780 C.2     1  UNL1       -0.0620
     76 C          26.6820   -4.0840   -2.0500 C.2     1  UNL1       -0.0618
     77 C          26.7440   -4.7970   -3.3060 C.2     1  UNL1       -0.0618
     78 C          26.9950   -4.1930   -4.4770 C.2     1  UNL1       -0.0621
     79 C          27.1890   -4.9400   -5.6980 C.2     1  UNL1       -0.0656
     80 C          27.6180   -4.3790   -6.8390 C.2     1  UNL1       -0.0805
     81 C          28.0390   -5.1990   -8.0360 C.3     1  UNL1        0.0026
     82 C          29.5740   -5.3470   -8.1420 C.3     1  UNL1        0.1040
     83 C          30.2600   -4.0200   -8.4590 C.3     1  UNL1       -0.0274
     84 C          31.2530   -6.4260   -6.8030 C.2     1  UNL1        0.3322
     85 C          31.5790   -6.8020   -5.4070 C.2     1  UNL1        0.0225
     86 C          30.7270   -6.6730   -4.3780 C.2     1  UNL1       -0.0553
     87 C          31.0580   -7.0430   -3.0200 C.2     1  UNL1       -0.0654
     88 C          30.1690   -6.9920   -2.0150 C.2     1  UNL1       -0.0816
     89 C          30.4970   -7.3920   -0.6000 C.3     1  UNL1       -0.0081
     90 C          30.1040   -6.3310    0.4480 C.3     1  UNL1        0.0635
     91 C          30.4620   -6.8370    1.8530 C.3     1  UNL1        0.0276
     92 C          30.1040   -5.8650    2.9950 C.3     1  UNL1        0.1723
     93 C          30.6040   -6.4550    4.3150 C.3     1  UNL1        0.0282
@<TRIPOS>BOND
     1    42    83    1
     2    31    81    1
     3    32    82    1
     4    45    83    1
     5    83    82    1
     6    83    33    1
     7    82    81    1
     8    82    64    1
     9    81    41    1
    10    81    80    1
    11    66    84    2
    12     5    80    1
    13    64    84    1
    14    80    79    2
    15    84    85    1
    16    79     6    1
    17    79    78    1
    18    85     2    1
    19    85    86    2
    20     1    86    1
    21     7    78    1
    22    78    77    2
    23    86    87    1
    24    77     8    1
    25    77    76    1
    26    87     3    1
    27    87    88    2
    28     4    88    1
    29     9    76    1
    30    76    75    2
    31    88    89    1
    32    75    10    1
    33    75    74    1
    34    27    68    1
    35    89    34    1
    36    89    43    1
    37    89    90    1
    38    68    90    1
    39    12    74    1
    40    74    73    2
    41    35    90    1
    42    90    91    1
    43    11    73    1
    44    73    59    1
    45    29    70    1
    46    20    58    1
    47    91    36    1
    48    91    44    1
    49    91    92    1
    50    58    63    1
    51    70    92    1
    52    56    59    1
    53    56    61    1
    54    59    21    1
    55    59    57    1
    56    92    72    1
    57    92    93    1
    58    72    55    1
    59    24    63    1
    60    38    48    1
    61    63    61    1
    62    63    65    1
    63    18    55    1
    64    61    62    1
    65    61    23    1
    66    39    57    1
    67    57    55    1
    68    57    19    1
    69    55    51    1
    70    62    69    1
    71    26    67    1
    72    37    93    1
    73    93    13    1
    74    93    49    1
    75    14    48    1
    76    46    71    1
    77    48    65    1
    78    65    67    1
    79    65    25    1
    80    67    69    1
    81    67    60    1
    82    69    71    1
    83    69    28    1
    84    71    40    1
    85    71    30    1
    86    51    49    1
    87    51    17    1
    88    51    53    1
    89    15    49    1
    90    49    50    1
    91    22    60    1
    92    54    53    2
    93    53    52    1
    94    50    16    1
    95    52    47    1
