@<TRIPOS>MOLECULE
73.21032
 93 95 0 0 0
SMALL
GASTEIGER

@<TRIPOS>ATOM
      1 H          29.3090   -4.5610   -4.4280 H       1  UNL1        0.0620
      2 H          31.8070   -5.8050   -5.7520 H       1  UNL1        0.0689
      3 H          31.2470   -6.8170   -3.4930 H       1  UNL1        0.0615
      4 H          29.0490   -5.1850   -2.1000 H       1  UNL1        0.0573
      5 H          30.6300   -1.0950   -5.7570 H       1  UNL1        0.0573
      6 H          33.2160   -2.0010   -4.3560 H       1  UNL1        0.0614
      7 H          30.2810   -1.6050   -3.4050 H       1  UNL1        0.0617
      8 H          32.8630   -2.4320   -1.9490 H       1  UNL1        0.0618
      9 H          29.8560   -2.4150   -1.1660 H       1  UNL1        0.0618
     10 H          32.4120   -3.0200    0.4360 H       1  UNL1        0.0617
     11 H          31.8110   -3.6190    2.8230 H       1  UNL1        0.0598
     12 H          29.3710   -3.4090    0.9730 H       1  UNL1        0.0615
     13 H          29.5980   -9.5360    3.2820 H       1  UNL1        0.0342
     14 H          26.5800   -0.6000    7.6370 H       1  UNL1        0.1186
     15 H          32.5650   -8.9000    3.6290 H       1  UNL1        0.0604
     16 H          31.8430  -10.8390    4.4730 H       1  UNL1        0.2098
     17 H          30.2280   -7.8710    5.3070 H       1  UNL1        0.0465
     18 H          31.8510   -6.2230    3.2750 H       1  UNL1        0.0607
     19 H          31.0320   -4.8670    5.1210 H       1  UNL1        0.0319
     20 H          29.1220   -0.9080    4.5120 H       1  UNL1        0.2101
     21 H          28.8880   -4.5850    2.9590 H       1  UNL1        0.0642
     22 H          24.1030   -0.8290    5.6440 H       1  UNL1        0.2100
     23 H          27.6890   -3.9600    5.0270 H       1  UNL1        0.0937
     24 H          28.3790   -2.0840    6.5270 H       1  UNL1        0.0660
     25 H          25.9430   -2.5290    6.4230 H       1  UNL1        0.0512
     26 H          25.8310   -0.5360    4.0930 H       1  UNL1        0.0635
     27 H          27.8840   -5.7240   -0.2310 H       1  UNL1        0.2098
     28 H          25.5150   -3.5960    4.0470 H       1  UNL1        0.0620
     29 H          31.6970   -6.8660    1.1200 H       1  UNL1        0.2128
     30 H          24.1110   -2.4290    2.3590 H       1  UNL1        0.0255
     31 H          33.4970   -1.7710   -6.7120 H       1  UNL1        0.0343
     32 H          30.8410   -2.2380   -8.2000 H       1  UNL1        0.0734
     33 H          33.7120   -3.0510   -8.8840 H       1  UNL1        0.0265
     34 H          30.7040   -5.9720   -0.3260 H       1  UNL1        0.0332
     35 H          28.3390   -7.7960   -0.9280 H       1  UNL1        0.0598
     36 H          29.7950   -9.2620    0.2520 H       1  UNL1        0.0342
     37 H          30.9370  -10.1440    2.3140 H       1  UNL1        0.0342
     38 H          26.5640    0.3150    6.3170 H       1  UNL1        0.1186
     39 H          29.4590   -5.6200    5.0610 H       1  UNL1        0.0319
     40 H          25.4630   -3.2960    1.5980 H       1  UNL1        0.0255
     41 H          32.4840   -0.5180   -7.4330 H       1  UNL1        0.0343
     42 H          32.7800   -1.7670   -9.6900 H       1  UNL1        0.0265
     43 H          30.9260   -7.4890   -1.2240 H       1  UNL1        0.0332
     44 H          28.4820   -8.7160    1.3100 H       1  UNL1        0.0342
     45 H          32.2710   -3.4670   -9.8000 H       1  UNL1        0.0265
     46 H          25.5450   -1.5500    1.7780 H       1  UNL1        0.0255
     47 H          32.6310   -6.8510    7.4260 H       1  UNL1        0.2951
     48 N          26.0740   -0.4750    6.7580 N.3     1  UNL1       -0.3229
     49 C          31.5360   -8.9630    4.0060 C.3     1  UNL1        0.0754
     50 O          31.4900  -10.0550    4.9310 O.3     1  UNL1       -0.3907
     51 C          31.1390   -7.6740    4.7250 C.3     1  UNL1        0.1084
     52 O          31.8170   -7.0690    6.9250 O.3     1  UNL1       -0.4803
     53 C          32.2470   -7.2800    5.6660 C.2     1  UNL1        0.3128
     54 O          33.4180   -7.0940    5.3740 O.2     1  UNL1       -0.2505
     55 C          30.9000   -6.5310    3.7290 C.3     1  UNL1        0.0799
     56 O          29.4180   -3.0670    4.2990 O.3     1  UNL1       -0.3413
     57 C          30.2980   -5.2990    4.4290 C.3     1  UNL1        0.0045
     58 O          28.3840   -0.6290    5.0940 O.3     1  UNL1       -0.3851
     59 C          29.7670   -4.2010    3.4930 C.3     1  UNL1        0.0826
     60 O          24.1580   -1.4320    4.8730 O.3     1  UNL1       -0.3876
     61 C          28.0170   -3.0090    4.5880 C.3     1  UNL1        0.1875
     62 O          27.2850   -2.7450    3.3920 O.3     1  UNL1       -0.3431
     63 C          27.8290   -1.8590    5.6050 C.3     1  UNL1        0.1234
     64 O          31.8190   -3.8320   -7.2230 O.3     1  UNL1       -0.4582
     65 C          26.3360   -1.6530    5.8910 C.3     1  UNL1        0.0646
     66 O          29.5620   -3.6110   -6.7880 O.2     1  UNL1       -0.2456
     67 C          25.5550   -1.4850    4.5710 C.3     1  UNL1        0.0987
     68 O          28.2630   -6.3040    0.4510 O.3     1  UNL1       -0.3913
     69 C          25.8740   -2.6500    3.6220 C.3     1  UNL1        0.0863
     70 O          31.7090   -7.8090    1.3550 O.3     1  UNL1       -0.3643
     71 C          25.2000   -2.4680    2.2660 C.3     1  UNL1       -0.0361
     72 O          30.0080   -6.9340    2.6830 O.3     1  UNL1       -0.3444
     73 C          30.7790   -3.6990    2.4970 C.2     1  UNL1       -0.0555
     74 C          30.4240   -3.3520    1.2500 C.2     1  UNL1       -0.0633
     75 C          31.3490   -2.9320    0.2240 C.2     1  UNL1       -0.0620
     76 C          30.9240   -2.5050   -0.9750 C.2     1  UNL1       -0.0618
     77 C          31.8050   -2.2200   -2.0850 C.2     1  UNL1       -0.0618
     78 C          31.3430   -1.8020   -3.2730 C.2     1  UNL1       -0.0621
     79 C          32.1750   -1.6990   -4.4500 C.2     1  UNL1       -0.0656
     80 C          31.6790   -1.3720   -5.6540 C.2     1  UNL1       -0.0805
     81 C          32.4590   -1.4950   -6.9380 C.3     1  UNL1        0.0026
     82 C          31.8460   -2.5490   -7.8880 C.3     1  UNL1        0.1040
     83 C          32.7030   -2.7080   -9.1380 C.3     1  UNL1       -0.0274
     84 C          30.6410   -4.1580   -6.6280 C.2     1  UNL1        0.3322
     85 C          30.9200   -5.1990   -5.6200 C.2     1  UNL1        0.0225
     86 C          30.1510   -5.2460   -4.5220 C.2     1  UNL1       -0.0553
     87 C          30.4400   -6.0950   -3.3900 C.2     1  UNL1       -0.0654
     88 C          29.8140   -5.9500   -2.2120 C.2     1  UNL1       -0.0816
     89 C          30.2050   -6.7050   -0.9660 C.3     1  UNL1       -0.0081
     90 C          29.0190   -7.3200   -0.2090 C.3     1  UNL1        0.0635
     91 C          29.4120   -8.4020    0.8180 C.3     1  UNL1        0.0276
     92 C          30.4340   -8.0570    1.9260 C.3     1  UNL1        0.1723
     93 C          30.5740   -9.2640    2.8600 C.3     1  UNL1        0.0282
@<TRIPOS>BOND
     1    45    83    1
     2    42    83    1
     3    83    33    1
     4    83    82    1
     5    32    82    1
     6    82    64    1
     7    82    81    1
     8    41    81    1
     9    64    84    1
    10    81    31    1
    11    81    80    1
    12    66    84    2
    13    84    85    1
    14     5    80    1
    15     2    85    1
    16    80    79    2
    17    85    86    2
    18    86     1    1
    19    86    87    1
    20    79     6    1
    21    79    78    1
    22     3    87    1
    23     7    78    1
    24    87    88    2
    25    78    77    2
    26    88     4    1
    27    88    89    1
    28    77     8    1
    29    77    76    1
    30    43    89    1
    31     9    76    1
    32    76    75    2
    33    89    34    1
    34    89    90    1
    35    35    90    1
    36    27    68    1
    37    90    68    1
    38    90    91    1
    39    75    10    1
    40    75    74    1
    41    36    91    1
    42    91    44    1
    43    91    92    1
    44    12    74    1
    45    29    70    1
    46    74    73    2
    47    70    92    1
    48    40    71    1
    49    46    71    1
    50    92    72    1
    51    92    93    1
    52    71    30    1
    53    71    69    1
    54    37    93    1
    55    73    11    1
    56    73    59    1
    57    72    55    1
    58    93    13    1
    59    93    49    1
    60    21    59    1
    61    18    55    1
    62    62    69    1
    63    62    61    1
    64    59    56    1
    65    59    57    1
    66    69    28    1
    67    69    67    1
    68    15    49    1
    69    55    57    1
    70    55    51    1
    71    49    51    1
    72    49    50    1
    73    26    67    1
    74    56    61    1
    75    57    39    1
    76    57    19    1
    77    16    50    1
    78    20    58    1
    79    67    60    1
    80    67    65    1
    81    61    23    1
    82    61    63    1
    83    51    17    1
    84    51    53    1
    85    60    22    1
    86    58    63    1
    87    54    53    2
    88    63    65    1
    89    63    24    1
    90    53    52    1
    91    65    25    1
    92    65    48    1
    93    38    48    1
    94    48    14    1
    95    52    47    1
