@<TRIPOS>MOLECULE
73.98259
 93 95 0 0 0
SMALL
GASTEIGER

@<TRIPOS>ATOM
      1 H          29.7750   -5.9180   -3.6670 H       1  UNL1        0.0620
      2 H          31.7700   -7.8860   -4.9630 H       1  UNL1        0.0689
      3 H          32.2120   -7.4310   -2.4400 H       1  UNL1        0.0615
      4 H          29.7220   -6.0260   -1.3140 H       1  UNL1        0.0573
      5 H          27.6310  -10.3870   -4.7600 H       1  UNL1        0.0573
      6 H          27.3710   -7.3590   -5.1620 H       1  UNL1        0.0614
      7 H          27.1410   -9.2320   -2.6900 H       1  UNL1        0.0617
      8 H          26.9390   -6.1910   -3.0910 H       1  UNL1        0.0618
      9 H          26.8310   -8.0080   -0.5610 H       1  UNL1        0.0618
     10 H          26.6710   -4.9710   -1.0150 H       1  UNL1        0.0617
     11 H          26.3820   -3.7080    1.0180 H       1  UNL1        0.0598
     12 H          26.6890   -6.7130    1.5700 H       1  UNL1        0.0615
     13 H          29.7400   -6.9150    4.9270 H       1  UNL1        0.0342
     14 H          21.0490   -2.6270    6.0570 H       1  UNL1        0.1186
     15 H          30.6300   -4.3200    6.2620 H       1  UNL1        0.0604
     16 H          30.5170   -6.1300    7.5600 H       1  UNL1        0.2098
     17 H          27.7680   -5.1950    5.6290 H       1  UNL1        0.0465
     18 H          29.3830   -3.0100    4.1840 H       1  UNL1        0.0607
     19 H          27.6020   -2.6750    2.7600 H       1  UNL1        0.0319
     20 H          22.8970   -4.3330    2.9090 H       1  UNL1        0.2101
     21 H          26.5670   -5.3850    3.6090 H       1  UNL1        0.0642
     22 H          21.2750   -5.3510    7.6970 H       1  UNL1        0.2100
     23 H          25.1990   -3.8770    5.3860 H       1  UNL1        0.0937
     24 H          23.1900   -2.6190    4.6160 H       1  UNL1        0.0660
     25 H          23.0450   -3.5900    6.8890 H       1  UNL1        0.0512
     26 H          21.8990   -6.1140    5.5750 H       1  UNL1        0.0635
     27 H          31.8980   -4.5050    0.1030 H       1  UNL1        0.2098
     28 H          24.6560   -5.6800    6.8720 H       1  UNL1        0.0620
     29 H          31.7810   -4.2030    2.7570 H       1  UNL1        0.2128
     30 H          23.7630   -7.9790    7.1920 H       1  UNL1        0.0255
     31 H          27.1990   -9.9020   -7.3460 H       1  UNL1        0.0343
     32 H          29.3160   -8.9810   -8.3660 H       1  UNL1        0.0734
     33 H          27.3930   -6.8830   -7.2970 H       1  UNL1        0.0265
     34 H          32.2430   -7.1520    0.0610 H       1  UNL1        0.0332
     35 H          29.9110   -5.3560    0.9200 H       1  UNL1        0.0598
     36 H          31.9030   -6.7670    2.7700 H       1  UNL1        0.0342
     37 H          31.3900   -6.4150    5.2870 H       1  UNL1        0.0342
     38 H          20.6060   -3.9990    5.3490 H       1  UNL1        0.1186
     39 H          26.8730   -2.6850    4.3350 H       1  UNL1        0.0319
     40 H          25.1190   -7.9580    6.0440 H       1  UNL1        0.0255
     41 H          28.7380  -10.4920   -6.7550 H       1  UNL1        0.0343
     42 H          27.2840   -7.8030   -8.7920 H       1  UNL1        0.0265
     43 H          30.6320   -7.8380    0.3640 H       1  UNL1        0.0332
     44 H          30.1970   -7.2430    2.5810 H       1  UNL1        0.0342
     45 H          28.5970   -6.6360   -8.5650 H       1  UNL1        0.0265
     46 H          23.4760   -8.1080    5.4400 H       1  UNL1        0.0255
     47 H          26.9950   -2.7230    7.7730 H       1  UNL1        0.2951
     48 N          21.0820   -3.6390    6.1870 N.3     1  UNL1       -0.3229
     49 C          29.8760   -5.0840    6.0350 C.3     1  UNL1        0.0754
     50 O          29.6490   -5.8280    7.2370 O.3     1  UNL1       -0.3907
     51 C          28.5620   -4.4390    5.5870 C.3     1  UNL1        0.1084
     52 O          27.0210   -3.4560    7.1210 O.3     1  UNL1       -0.4803
     53 C          28.2380   -3.3270    6.5530 C.2     1  UNL1        0.3128
     54 O          28.9330   -2.3610    6.8170 O.2     1  UNL1       -0.2505
     55 C          28.6930   -3.8650    4.1700 C.3     1  UNL1        0.0799
     56 O          25.0350   -4.0010    3.3230 O.3     1  UNL1       -0.3413
     57 C          27.3580   -3.3390    3.6020 C.3     1  UNL1        0.0045
     58 O          22.2890   -4.1830    3.6630 O.3     1  UNL1       -0.3851
     59 C          26.3860   -4.4300    3.1030 C.3     1  UNL1        0.0826
     60 O          22.0810   -5.9020    7.6080 O.3     1  UNL1       -0.3876
     61 C          24.5470   -4.3220    4.6290 C.3     1  UNL1        0.1875
     62 O          24.4960   -5.7370    4.8070 O.3     1  UNL1       -0.3431
     63 C          23.1320   -3.7070    4.7320 C.3     1  UNL1        0.1234
     64 O          30.0130   -8.1210   -6.6850 O.3     1  UNL1       -0.4582
     65 C          22.4960   -4.0830    6.0770 C.3     1  UNL1        0.0646
     66 O          29.3640   -5.9660   -6.1560 O.2     1  UNL1       -0.2456
     67 C          22.5590   -5.6090    6.2920 C.3     1  UNL1        0.0987
     68 O          31.8800   -4.7970    1.0340 O.3     1  UNL1       -0.3913
     69 C          24.0010   -6.1060    6.1010 C.3     1  UNL1        0.0863
     70 O          31.4470   -4.3180    3.6730 O.3     1  UNL1       -0.3643
     71 C          24.0890   -7.6240    6.2090 C.3     1  UNL1       -0.0361
     72 O          29.2060   -4.8430    3.2610 O.3     1  UNL1       -0.3444
     73 C          26.4760   -4.6170    1.6080 C.2     1  UNL1       -0.0555
     74 C          26.6240   -5.7970    0.9860 C.2     1  UNL1       -0.0633
     75 C          26.6950   -5.9040   -0.4550 C.2     1  UNL1       -0.0620
     76 C          26.8070   -7.0690   -1.1110 C.2     1  UNL1       -0.0618
     77 C          26.9410   -7.1370   -2.5510 C.2     1  UNL1       -0.0618
     78 C          27.1220   -8.2840   -3.2240 C.2     1  UNL1       -0.0621
     79 C          27.3730   -8.3170   -4.6500 C.2     1  UNL1       -0.0656
     80 C          27.6570   -9.4480   -5.3120 C.2     1  UNL1       -0.0805
     81 C          28.0770   -9.6130   -6.7560 C.3     1  UNL1        0.0026
     82 C          28.8660   -8.5000   -7.4870 C.3     1  UNL1        0.1040
     83 C          27.9870   -7.3910   -8.0590 C.3     1  UNL1       -0.0274
     84 C          30.0530   -6.9580   -5.9970 C.2     1  UNL1        0.3322
     85 C          30.9740   -7.1620   -4.8590 C.2     1  UNL1        0.0225
     86 C          30.6430   -6.5780   -3.6990 C.2     1  UNL1       -0.0553
     87 C          31.2840   -6.8640   -2.4380 C.2     1  UNL1       -0.0654
     88 C          30.6850   -6.5340   -1.2840 C.2     1  UNL1       -0.0816
     89 C          31.1710   -6.9240    0.0850 C.3     1  UNL1       -0.0081
     90 C          30.8820   -5.8220    1.1200 C.3     1  UNL1        0.0635
     91 C          30.8950   -6.3970    2.5430 C.3     1  UNL1        0.0276
     92 C          30.4880   -5.3620    3.6080 C.3     1  UNL1        0.1723
     93 C          30.4060   -6.0420    4.9740 C.3     1  UNL1        0.0282
@<TRIPOS>BOND
     1    42    83    1
     2    45    83    1
     3    32    82    1
     4    83    82    1
     5    83    33    1
     6    82    81    1
     7    82    64    1
     8    31    81    1
     9    81    41    1
    10    81    80    1
    11    64    84    1
    12    66    84    2
    13    84    85    1
    14    80     5    1
    15    80    79    2
    16     6    79    1
    17     2    85    1
    18    85    86    2
    19    79    78    1
    20    86     1    1
    21    86    87    1
    22    78     7    1
    23    78    77    2
    24     8    77    1
    25    77    76    1
    26     3    87    1
    27    87    88    2
    28     4    88    1
    29    88    89    1
    30    76     9    1
    31    76    75    2
    32    10    75    1
    33    75    74    1
    34    34    89    1
    35    89    43    1
    36    89    90    1
    37    27    68    1
    38    35    90    1
    39    74    12    1
    40    74    73    2
    41    11    73    1
    42    68    90    1
    43    90    91    1
    44    73    59    1
    45    91    44    1
    46    91    36    1
    47    91    92    1
    48    29    70    1
    49    19    57    1
    50    20    58    1
    51    59    56    1
    52    59    57    1
    53    59    21    1
    54    72    92    1
    55    72    55    1
    56    56    61    1
    57    57    55    1
    58    57    39    1
    59    92    70    1
    60    92    93    1
    61    58    63    1
    62    55    18    1
    63    55    51    1
    64    24    63    1
    65    61    63    1
    66    61    62    1
    67    61    23    1
    68    63    65    1
    69    62    69    1
    70    13    93    1
    71    93    37    1
    72    93    49    1
    73    38    48    1
    74    46    71    1
    75    26    67    1
    76    51    17    1
    77    51    49    1
    78    51    53    1
    79    49    15    1
    80    49    50    1
    81    40    71    1
    82    14    48    1
    83    65    48    1
    84    65    67    1
    85    65    25    1
    86    69    71    1
    87    69    67    1
    88    69    28    1
    89    71    30    1
    90    67    60    1
    91    53    54    2
    92    53    52    1
    93    52    47    1
    94    50    16    1
    95    60    22    1
