@<TRIPOS>MOLECULE
61.51742
 93 95 0 0 0
SMALL
GASTEIGER

@<TRIPOS>ATOM
      1 H          29.0600   -6.7370   -4.3120 H       1  UNL1        0.0620
      2 H          31.2680   -8.6670   -5.2820 H       1  UNL1        0.0689
      3 H          31.4550   -8.0930   -2.8530 H       1  UNL1        0.0615
      4 H          28.8980   -6.7180   -1.8380 H       1  UNL1        0.0573
      5 H          25.9360   -5.7640   -6.5880 H       1  UNL1        0.0573
      6 H          28.1610   -3.9950   -5.4210 H       1  UNL1        0.0614
      7 H          25.5220   -5.0950   -4.1850 H       1  UNL1        0.0617
      8 H          28.0220   -3.7010   -3.0580 H       1  UNL1        0.0618
      9 H          25.3370   -4.5500   -1.7330 H       1  UNL1        0.0618
     10 H          28.0280   -3.4980   -0.6740 H       1  UNL1        0.0617
     11 H          28.1380   -3.3350    1.7000 H       1  UNL1        0.0598
     12 H          25.3100   -4.0550    0.7350 H       1  UNL1        0.0615
     13 H          30.4560   -7.4340    4.5950 H       1  UNL1        0.0342
     14 H          27.8240    1.3280    7.1310 H       1  UNL1        0.1186
     15 H          30.8960   -4.6070    5.6630 H       1  UNL1        0.0604
     16 H          31.6960   -6.3160    6.8830 H       1  UNL1        0.2098
     17 H          28.3510   -6.3230    5.7470 H       1  UNL1        0.0465
     18 H          28.9350   -3.7930    4.1050 H       1  UNL1        0.0607
     19 H          26.4570   -4.5410    5.0320 H       1  UNL1        0.0319
     20 H          27.2180   -0.0610    3.3950 H       1  UNL1        0.2101
     21 H          25.4110   -3.4530    3.1110 H       1  UNL1        0.0642
     22 H          24.6870    1.5830    7.5890 H       1  UNL1        0.2100
     23 H          26.2730   -2.4750    5.6280 H       1  UNL1        0.0937
     24 H          28.0420   -0.7080    5.5670 H       1  UNL1        0.0660
     25 H          26.3050   -0.4670    7.3250 H       1  UNL1        0.0512
     26 H          24.7100    1.1800    5.2850 H       1  UNL1        0.0635
     27 H          30.7340   -5.0110   -0.6760 H       1  UNL1        0.2098
     28 H          24.1380   -1.6410    6.3720 H       1  UNL1        0.0620
     29 H          31.0610   -4.4960    1.9340 H       1  UNL1        0.2128
     30 H          22.0860   -0.3250    5.8800 H       1  UNL1        0.0255
     31 H          28.3630   -4.2620   -7.7580 H       1  UNL1        0.0343
     32 H          27.8170   -7.2590   -8.1370 H       1  UNL1        0.0734
     33 H          30.1090   -5.4560   -9.1330 H       1  UNL1        0.0265
     34 H          31.5000   -7.6930   -0.4830 H       1  UNL1        0.0332
     35 H          29.1180   -6.1040    0.6350 H       1  UNL1        0.0598
     36 H          31.7340   -6.9950    1.9690 H       1  UNL1        0.0342
     37 H          31.9290   -6.4810    4.4740 H       1  UNL1        0.0342
     38 H          26.9420    2.0460    5.9980 H       1  UNL1        0.1186
     39 H          26.5410   -5.5850    3.6240 H       1  UNL1        0.0319
     40 H          22.3210   -1.6350    4.7030 H       1  UNL1        0.0255
     41 H          27.0210   -4.9480   -8.6660 H       1  UNL1        0.0343
     42 H          28.7770   -6.0510  -10.1510 H       1  UNL1        0.0265
     43 H          29.9360   -8.4110   -0.0620 H       1  UNL1        0.0332
     44 H          30.1640   -7.7910    2.2310 H       1  UNL1        0.0342
     45 H          29.9550   -7.1740   -9.4530 H       1  UNL1        0.0265
     46 H          22.7020    0.0180    4.2460 H       1  UNL1        0.0255
     47 H          27.6970   -4.3460    8.3980 H       1  UNL1        0.2951
     48 N          26.8520    1.4920    6.8600 N.3     1  UNL1       -0.3229
     49 C          30.3730   -5.5710    5.6480 C.3     1  UNL1        0.0754
     50 O          30.7240   -6.2640    6.8490 O.3     1  UNL1       -0.3907
     51 C          28.8600   -5.3620    5.5950 C.3     1  UNL1        0.1084
     52 O          27.8340   -5.0360    7.7180 O.3     1  UNL1       -0.4803
     53 C          28.4570   -4.4150    6.6970 C.2     1  UNL1        0.3128
     54 O          28.6070   -3.2040    6.7140 O.2     1  UNL1       -0.2505
     55 C          28.4690   -4.7780    4.2310 C.3     1  UNL1        0.0799
     56 O          26.9800   -2.2250    3.6860 O.3     1  UNL1       -0.3413
     57 C          26.9390   -4.6580    4.0560 C.3     1  UNL1        0.0045
     58 O          27.1140    0.4900    4.1990 O.3     1  UNL1       -0.3851
     59 C          26.5060   -3.4710    3.1690 C.3     1  UNL1        0.0826
     60 O          24.0870    0.9000    7.2210 O.3     1  UNL1       -0.3876
     61 C          26.2660   -1.7340    4.8230 C.3     1  UNL1        0.1875
     62 O          24.9170   -1.4340    4.4660 O.3     1  UNL1       -0.3431
     63 C          27.0130   -0.4590    5.2820 C.3     1  UNL1        0.1234
     64 O          29.3270   -6.6020   -6.8530 O.3     1  UNL1       -0.4582
     65 C          26.2610    0.1920    6.4480 C.3     1  UNL1        0.0646
     66 O          29.7500   -8.7870   -7.4360 O.2     1  UNL1       -0.2456
     67 C          24.7830    0.4150    6.0680 C.3     1  UNL1        0.0987
     68 O          30.9240   -5.1980    0.2630 O.3     1  UNL1       -0.3913
     69 C          24.1660   -0.8990    5.5630 C.3     1  UNL1        0.0863
     70 O          30.9950   -4.5960    2.9080 O.3     1  UNL1       -0.3643
     71 C          22.7340   -0.6920    5.0790 C.3     1  UNL1       -0.0361
     72 O          28.9270   -5.6490    3.1800 O.3     1  UNL1       -0.3444
     73 C          27.0740   -3.5510    1.7800 C.2     1  UNL1       -0.0555
     74 C          26.3730   -3.8360    0.6720 C.2     1  UNL1       -0.0633
     75 C          26.9930   -3.8340   -0.6320 C.2     1  UNL1       -0.0620
     76 C          26.3670   -4.2030   -1.7590 C.2     1  UNL1       -0.0618
     77 C          27.0300   -4.1510   -3.0420 C.2     1  UNL1       -0.0618
     78 C          26.5020   -4.6250   -4.1800 C.2     1  UNL1       -0.0621
     79 C          27.2260   -4.5550   -5.4260 C.2     1  UNL1       -0.0656
     80 C          26.8470   -5.1720   -6.5550 C.2     1  UNL1       -0.0805
     81 C          27.6830   -5.1220   -7.8090 C.3     1  UNL1        0.0026
     82 C          28.5020   -6.4090   -8.0220 C.3     1  UNL1        0.1040
     83 C          29.3800   -6.2630   -9.2630 C.3     1  UNL1       -0.0274
     84 C          29.8020   -7.8520   -6.6520 C.2     1  UNL1        0.3322
     85 C          30.4410   -7.9680   -5.3270 C.2     1  UNL1        0.0225
     86 C          29.9450   -7.3660   -4.2350 C.2     1  UNL1       -0.0553
     87 C          30.5020   -7.5680   -2.9160 C.2     1  UNL1       -0.0654
     88 C          29.8760   -7.1940   -1.7890 C.2     1  UNL1       -0.0816
     89 C          30.4230   -7.4940   -0.4150 C.3     1  UNL1       -0.0081
     90 C          30.1800   -6.3710    0.6130 C.3     1  UNL1        0.0635
     91 C          30.6480   -6.8330    2.0030 C.3     1  UNL1        0.0276
     92 C          30.3380   -5.8330    3.1340 C.3     1  UNL1        0.1723
     93 C          30.8340   -6.4110    4.4610 C.3     1  UNL1        0.0282
@<TRIPOS>BOND
     1    42    83    1
     2    45    83    1
     3    83    33    1
     4    83    82    1
     5    41    81    1
     6    32    82    1
     7    82    81    1
     8    82    64    1
     9    81    31    1
    10    81    80    1
    11    66    84    2
    12    64    84    1
    13    84    85    1
    14     5    80    1
    15    80    79    2
    16    79     6    1
    17    79    78    1
    18    85     2    1
    19    85    86    2
    20     1    86    1
    21    86    87    1
    22     7    78    1
    23    78    77    2
    24     8    77    1
    25    77    76    1
    26    87     3    1
    27    87    88    2
    28     4    88    1
    29    88    89    1
    30    76     9    1
    31    76    75    2
    32    27    68    1
    33    10    75    1
    34    75    74    1
    35    34    89    1
    36    89    43    1
    37    89    90    1
    38    68    90    1
    39    90    35    1
    40    90    91    1
    41    74    12    1
    42    74    73    2
    43    11    73    1
    44    73    59    1
    45    29    70    1
    46    36    91    1
    47    91    44    1
    48    91    92    1
    49    70    92    1
    50    21    59    1
    51    92    72    1
    52    92    93    1
    53    59    56    1
    54    59    57    1
    55    72    55    1
    56    20    58    1
    57    39    57    1
    58    56    61    1
    59    57    55    1
    60    57    19    1
    61    18    55    1
    62    58    63    1
    63    55    51    1
    64    46    71    1
    65    93    37    1
    66    93    13    1
    67    93    49    1
    68    62    61    1
    69    62    69    1
    70    40    71    1
    71    61    63    1
    72    61    23    1
    73    71    69    1
    74    71    30    1
    75    63    24    1
    76    63    65    1
    77    26    67    1
    78    69    67    1
    79    69    28    1
    80    51    49    1
    81    51    17    1
    82    51    53    1
    83    49    15    1
    84    49    50    1
    85    38    48    1
    86    67    65    1
    87    67    60    1
    88    65    48    1
    89    65    25    1
    90    53    54    2
    91    53    52    1
    92    50    16    1
    93    48    14    1
    94    60    22    1
    95    52    47    1
