@<TRIPOS>MOLECULE
58.45409
 93 95 0 0 0
SMALL
GASTEIGER

@<TRIPOS>ATOM
      1 H          28.0250   -5.6960   -4.6700 H       1  UNL1        0.0620
      2 H          30.9670   -5.5600   -5.6050 H       1  UNL1        0.0689
      3 H          30.6890   -6.7350   -3.4240 H       1  UNL1        0.0615
      4 H          27.8200   -6.5250   -2.3330 H       1  UNL1        0.0573
      5 H          29.8530   -0.8940   -5.7040 H       1  UNL1        0.0573
      6 H          27.4380   -2.7140   -5.1580 H       1  UNL1        0.0614
      7 H          29.3620   -1.1770   -3.2520 H       1  UNL1        0.0617
      8 H          27.0880   -3.2090   -2.8410 H       1  UNL1        0.0618
      9 H          28.9060   -1.6550   -0.8480 H       1  UNL1        0.0618
     10 H          26.6600   -3.7320   -0.5160 H       1  UNL1        0.0617
     11 H          26.1530   -4.2070    1.8060 H       1  UNL1        0.0598
     12 H          28.4070   -2.1460    1.5140 H       1  UNL1        0.0615
     13 H          30.0710   -8.1630    3.8570 H       1  UNL1        0.0342
     14 H          30.8540    0.5260    6.9070 H       1  UNL1        0.1186
     15 H          31.4560   -5.7110    5.0430 H       1  UNL1        0.0604
     16 H          31.9730   -7.7140    5.9170 H       1  UNL1        0.2098
     17 H          28.6130   -6.7340    5.5700 H       1  UNL1        0.0465
     18 H          29.4580   -4.2330    3.9960 H       1  UNL1        0.0607
     19 H          27.1590   -4.4800    5.4200 H       1  UNL1        0.0319
     20 H          28.7200   -0.2610    3.5630 H       1  UNL1        0.2101
     21 H          26.0070   -3.0030    3.9500 H       1  UNL1        0.0642
     22 H          28.2450    1.6530    8.3270 H       1  UNL1        0.2100
     23 H          27.8180   -2.4870    5.9930 H       1  UNL1        0.0937
     24 H          29.9460   -1.3310    5.3600 H       1  UNL1        0.0660
     25 H          28.9880   -0.7470    7.5760 H       1  UNL1        0.0512
     26 H          27.4440    1.4800    6.1350 H       1  UNL1        0.0635
     27 H          29.9430   -4.8680   -0.8850 H       1  UNL1        0.2098
     28 H          26.3820   -1.1340    7.3620 H       1  UNL1        0.0620
     29 H          30.9130   -5.0310    1.4750 H       1  UNL1        0.2128
     30 H          24.7910    0.7690    7.5380 H       1  UNL1        0.0255
     31 H          28.6110   -0.9140   -7.9220 H       1  UNL1        0.0343
     32 H          29.3470   -3.2110   -8.9420 H       1  UNL1        0.0734
     33 H          31.5160   -1.5500   -7.5570 H       1  UNL1        0.0265
     34 H          30.4610   -7.7760   -1.3180 H       1  UNL1        0.0332
     35 H          28.4750   -6.0870    0.3210 H       1  UNL1        0.0598
     36 H          31.0180   -7.6210    1.0830 H       1  UNL1        0.0342
     37 H          31.7020   -7.5990    3.5110 H       1  UNL1        0.0342
     38 H          29.9430    1.5720    6.0970 H       1  UNL1        0.1186
     39 H          26.6590   -5.4260    4.0310 H       1  UNL1        0.0319
     40 H          24.2410   -0.4350    6.3540 H       1  UNL1        0.0255
     41 H          27.7330   -2.3410   -7.4380 H       1  UNL1        0.0343
     42 H          30.7590   -1.1520   -9.1190 H       1  UNL1        0.0265
     43 H          28.8350   -8.3010   -0.8860 H       1  UNL1        0.0332
     44 H          29.3630   -8.0990    1.5210 H       1  UNL1        0.0342
     45 H          31.7360   -2.6230   -8.9290 H       1  UNL1        0.0265
     46 H          24.9590    1.0670    5.7910 H       1  UNL1        0.0255
     47 H          29.0520   -4.9410    8.3910 H       1  UNL1        0.2951
     48 N          29.9470    0.9960    6.9490 N.3     1  UNL1       -0.3229
     49 C          30.6960   -6.5020    5.0610 C.3     1  UNL1        0.0754
     50 O          31.0630   -7.4180    6.0980 O.3     1  UNL1       -0.3907
     51 C          29.3160   -5.9180    5.3540 C.3     1  UNL1        0.1084
     52 O          28.8560   -5.5660    7.6640 O.3     1  UNL1       -0.4803
     53 C          29.4200   -5.0260    6.5660 C.2     1  UNL1        0.3128
     54 O          29.9080   -3.9070    6.6120 O.2     1  UNL1       -0.2505
     55 C          28.8100   -5.1050    4.1510 C.3     1  UNL1        0.0799
     56 O          27.9470   -2.2880    3.9240 O.3     1  UNL1       -0.3413
     57 C          27.3530   -4.6380    4.3540 C.3     1  UNL1        0.0045
     58 O          29.0680    0.2100    4.3480 O.3     1  UNL1       -0.3851
     59 C          27.0060   -3.3220    3.6270 C.3     1  UNL1        0.0826
     60 O          27.3810    1.2180    8.1700 O.3     1  UNL1       -0.3876
     61 C          27.8030   -1.7090    5.2230 C.3     1  UNL1        0.1875
     62 O          26.5730   -0.9900    5.3060 O.3     1  UNL1       -0.3431
     63 C          29.0110   -0.7620    5.4140 C.3     1  UNL1        0.1234
     64 O          30.2250   -3.8170   -7.1600 O.3     1  UNL1       -0.4582
     65 C          28.8880   -0.0270    6.7540 C.3     1  UNL1        0.0646
     66 O          28.1600   -4.8440   -7.1680 O.2     1  UNL1       -0.2456
     67 C          27.5090    0.6570    6.8600 C.3     1  UNL1        0.0987
     68 O          30.3470   -5.3710   -0.1500 O.3     1  UNL1       -0.3913
     69 C          26.3920   -0.3610    6.5820 C.3     1  UNL1        0.0863
     70 O          31.0280   -5.3040    2.4110 O.3     1  UNL1       -0.3643
     71 C          25.0200    0.3030    6.5750 C.3     1  UNL1       -0.0361
     72 O          28.8340   -5.9150    2.9610 O.3     1  UNL1       -0.3444
     73 C          26.9160   -3.5020    2.1290 C.2     1  UNL1       -0.0555
     74 C          27.6440   -2.8560    1.2040 C.2     1  UNL1       -0.0633
     75 C          27.4390   -3.0350   -0.2150 C.2     1  UNL1       -0.0620
     76 C          28.1340   -2.3630   -1.1450 C.2     1  UNL1       -0.0618
     77 C          27.8820   -2.5190   -2.5590 C.2     1  UNL1       -0.0618
     78 C          28.5620   -1.8650   -3.5130 C.2     1  UNL1       -0.0621
     79 C          28.2760   -2.0610   -4.9150 C.2     1  UNL1       -0.0656
     80 C          29.0010   -1.5350   -5.9140 C.2     1  UNL1       -0.0805
     81 C          28.7130   -1.8520   -7.3620 C.3     1  UNL1        0.0026
     82 C          29.7690   -2.7610   -8.0340 C.3     1  UNL1        0.1040
     83 C          31.0110   -1.9680   -8.4340 C.3     1  UNL1       -0.0274
     84 C          29.3020   -4.7220   -6.7580 C.2     1  UNL1        0.3322
     85 C          29.8890   -5.4590   -5.6230 C.2     1  UNL1        0.0225
     86 C          29.0990   -5.8690   -4.6200 C.2     1  UNL1       -0.0553
     87 C          29.6260   -6.4960   -3.4310 C.2     1  UNL1       -0.0654
     88 C          28.8810   -6.7670   -2.3490 C.2     1  UNL1       -0.0816
     89 C          29.4440   -7.4170   -1.1120 C.3     1  UNL1       -0.0081
     90 C          29.4760   -6.4790    0.1100 C.3     1  UNL1        0.0635
     91 C          30.0180   -7.2400    1.3300 C.3     1  UNL1        0.0276
     92 C          30.1320   -6.3870    2.6080 C.3     1  UNL1        0.1723
     93 C          30.6840   -7.2590    3.7380 C.3     1  UNL1        0.0282
@<TRIPOS>BOND
     1    42    83    1
     2    32    82    1
     3    45    83    1
     4    83    82    1
     5    83    33    1
     6    82    81    1
     7    82    64    1
     8    31    81    1
     9    41    81    1
    10    81    80    1
    11    66    84    2
    12    64    84    1
    13    84    85    1
    14    80     5    1
    15    80    79    2
    16    85     2    1
    17    85    86    2
    18     6    79    1
    19    79    78    1
    20     1    86    1
    21    86    87    1
    22    78     7    1
    23    78    77    2
    24    87     3    1
    25    87    88    2
    26     8    77    1
    27    77    76    1
    28    88     4    1
    29    88    89    1
    30    34    89    1
    31    76     9    1
    32    76    75    2
    33    89    43    1
    34    89    90    1
    35    27    68    1
    36    10    75    1
    37    75    74    1
    38    68    90    1
    39    90    35    1
    40    90    91    1
    41    36    91    1
    42    74    12    1
    43    74    73    2
    44    91    44    1
    45    91    92    1
    46    29    70    1
    47    11    73    1
    48    73    59    1
    49    70    92    1
    50    92    72    1
    51    92    93    1
    52    72    55    1
    53    37    93    1
    54    20    58    1
    55    59    56    1
    56    59    21    1
    57    59    57    1
    58    93    13    1
    59    93    49    1
    60    56    61    1
    61    18    55    1
    62    39    57    1
    63    55    57    1
    64    55    51    1
    65    58    63    1
    66    57    19    1
    67    15    49    1
    68    49    51    1
    69    49    50    1
    70    61    62    1
    71    61    63    1
    72    61    23    1
    73    62    69    1
    74    51    17    1
    75    51    53    1
    76    24    63    1
    77    63    65    1
    78    46    71    1
    79    16    50    1
    80    38    48    1
    81    26    67    1
    82    40    71    1
    83    53    54    2
    84    53    52    1
    85    71    69    1
    86    71    30    1
    87    69    67    1
    88    69    28    1
    89    65    67    1
    90    65    48    1
    91    65    25    1
    92    67    60    1
    93    14    48    1
    94    52    47    1
    95    60    22    1
