@<TRIPOS>MOLECULE
85.40443
 93 95 0 0 0
SMALL
GASTEIGER

@<TRIPOS>ATOM
      1 H          28.9860   -6.2100   -4.7800 H       1  UNL1        0.0620
      2 H          31.7370   -7.5460   -4.9690 H       1  UNL1        0.0689
      3 H          30.7910   -7.7230   -2.7290 H       1  UNL1        0.0615
      4 H          28.0980   -6.2630   -2.4820 H       1  UNL1        0.0573
      5 H          33.5870   -5.6780   -5.9840 H       1  UNL1        0.0573
      6 H          35.2470   -7.9360   -4.7160 H       1  UNL1        0.0614
      7 H          35.7160   -6.1910   -3.0590 H       1  UNL1        0.0617
      8 H          32.7940   -5.4220   -3.6410 H       1  UNL1        0.0618
      9 H          34.7890   -4.6010   -1.4020 H       1  UNL1        0.0618
     10 H          31.8410   -3.9360   -1.9820 H       1  UNL1        0.0617
     11 H          30.8570   -2.4990   -0.2860 H       1  UNL1        0.0598
     12 H          33.8270   -3.0510    0.2490 H       1  UNL1        0.0615
     13 H          27.3440   -2.5590    0.4030 H       1  UNL1        0.0342
     14 H          37.0430    1.2640    3.7540 H       1  UNL1        0.1186
     15 H          26.9920   -2.4650    3.4360 H       1  UNL1        0.0604
     16 H          25.5770   -1.2370    2.2300 H       1  UNL1        0.2098
     17 H          29.0120   -0.9310    1.7360 H       1  UNL1        0.0465
     18 H          29.5740   -3.3150    3.6010 H       1  UNL1        0.0607
     19 H          31.8360   -3.2970    2.7970 H       1  UNL1        0.0319
     20 H          34.6940    0.0480    0.7160 H       1  UNL1        0.2101
     21 H          31.1850   -0.7100    1.2740 H       1  UNL1        0.0642
     22 H          35.1780    3.8210    4.2120 H       1  UNL1        0.2100
     23 H          32.9800   -0.3760    3.6410 H       1  UNL1        0.0937
     24 H          35.3800   -0.5520    2.9810 H       1  UNL1        0.0660
     25 H          34.8240    1.2510    4.5830 H       1  UNL1        0.0512
     26 H          34.3450    3.0710    2.1610 H       1  UNL1        0.0635
     27 H          29.9600   -7.5000    1.6330 H       1  UNL1        0.2098
     28 H          32.2890    1.8610    4.1030 H       1  UNL1        0.0620
     29 H          28.3330   -5.7770    2.6280 H       1  UNL1        0.2128
     30 H          31.6620    4.1160    3.2760 H       1  UNL1        0.0255
     31 H          34.8260   -8.2500   -7.1300 H       1  UNL1        0.0343
     32 H          32.8000   -8.4990   -8.5260 H       1  UNL1        0.0734
     33 H          32.5610   -9.2940   -5.6280 H       1  UNL1        0.0265
     34 H          29.7190   -8.1200   -0.6190 H       1  UNL1        0.0332
     35 H          30.1810   -5.8060    0.2030 H       1  UNL1        0.0598
     36 H          27.1240   -5.6420    0.3450 H       1  UNL1        0.0342
     37 H          26.1700   -3.4530    1.3640 H       1  UNL1        0.0342
     38 H          36.6310    2.1570    2.4840 H       1  UNL1        0.1186
     39 H          31.4350   -1.8170    3.6170 H       1  UNL1        0.0319
     40 H          30.6370    2.8550    2.5580 H       1  UNL1        0.0255
     41 H          34.3110   -6.8080   -7.9880 H       1  UNL1        0.0343
     42 H          32.9990  -10.2310   -7.0350 H       1  UNL1        0.0265
     43 H          28.0070   -7.8380   -0.5590 H       1  UNL1        0.0332
     44 H          28.1990   -4.5950   -0.6060 H       1  UNL1        0.0342
     45 H          31.3200   -9.6920   -6.8300 H       1  UNL1        0.0265
     46 H          31.9220    3.5740    1.6000 H       1  UNL1        0.0255
     47 H          29.3640    0.9330    4.5100 H       1  UNL1        0.2951
     48 N          36.4170    2.0240    3.4810 N.3     1  UNL1       -0.3229
     49 C          27.3420   -2.0410    2.4870 C.3     1  UNL1        0.0754
     50 O          26.4980   -0.9250    2.1830 O.3     1  UNL1       -0.3907
     51 C          28.7920   -1.5640    2.6040 C.3     1  UNL1        0.1084
     52 O          29.3980    0.4930    3.6350 O.3     1  UNL1       -0.4803
     53 C          28.9270   -0.7480    3.8630 C.2     1  UNL1        0.3128
     54 O          28.7000   -1.1190    5.0030 O.2     1  UNL1       -0.2505
     55 C          29.7500   -2.7590    2.6690 C.3     1  UNL1        0.0799
     56 O          33.1480   -1.1680    1.7300 O.3     1  UNL1       -0.3413
     57 C          31.2450   -2.3750    2.6950 C.3     1  UNL1        0.0045
     58 O          35.2430    0.6060    1.3060 O.3     1  UNL1       -0.3851
     59 C          31.7970   -1.5920    1.4860 C.3     1  UNL1        0.0826
     60 O          34.2090    3.7300    4.1000 O.3     1  UNL1       -0.3876
     61 C          33.2830   -0.0670    2.6340 C.3     1  UNL1        0.1875
     62 O          32.5000    1.0460    2.2120 O.3     1  UNL1       -0.3431
     63 C          34.7860    0.3040    2.6410 C.3     1  UNL1        0.1234
     64 O          31.6110   -7.1740   -7.6140 O.3     1  UNL1       -0.4582
     65 C          35.0190    1.5260    3.5380 C.3     1  UNL1        0.0646
     66 O          29.8690   -5.8720   -7.0960 O.2     1  UNL1       -0.2456
     67 C          34.0650    2.6740    3.1450 C.3     1  UNL1        0.0987
     68 O          29.1790   -6.9170    1.6100 O.3     1  UNL1       -0.3913
     69 C          32.6170    2.1650    3.1000 C.3     1  UNL1        0.0863
     70 O          27.9110   -4.8960    2.7300 O.3     1  UNL1       -0.3643
     71 C          31.6590    3.2460    2.6120 C.3     1  UNL1       -0.0361
     72 O          29.5250   -3.6600    1.5780 O.3     1  UNL1       -0.3444
     73 C          31.8130   -2.4350    0.2290 C.2     1  UNL1       -0.0555
     74 C          32.8700   -3.0990   -0.2670 C.2     1  UNL1       -0.0633
     75 C          32.7950   -3.9130   -1.4590 C.2     1  UNL1       -0.0620
     76 C          33.8340   -4.6230   -1.9240 C.2     1  UNL1       -0.0618
     77 C          33.7470   -5.4320   -3.1190 C.2     1  UNL1       -0.0618
     78 C          34.7680   -6.1630   -3.5930 C.2     1  UNL1       -0.0621
     79 C          34.7040   -6.9950   -4.7760 C.2     1  UNL1       -0.0656
     80 C          34.0810   -6.6470   -5.9130 C.2     1  UNL1       -0.0805
     81 C          34.0450   -7.4800   -7.1620 C.3     1  UNL1        0.0026
     82 C          32.6940   -8.1410   -7.4930 C.3     1  UNL1        0.1040
     83 C          32.3670   -9.4020   -6.6980 C.3     1  UNL1       -0.0274
     84 C          30.7410   -6.6520   -6.7240 C.2     1  UNL1        0.3322
     85 C          30.8520   -7.0420   -5.3110 C.2     1  UNL1        0.0225
     86 C          29.8740   -6.7440   -4.4410 C.2     1  UNL1       -0.0553
     87 C          29.9320   -7.1350   -3.0490 C.2     1  UNL1       -0.0654
     88 C          28.9660   -6.8390   -2.1660 C.2     1  UNL1       -0.0816
     89 C          28.9640   -7.3330   -0.7470 C.3     1  UNL1       -0.0081
     90 C          29.1910   -6.2600    0.3320 C.3     1  UNL1        0.0635
     91 C          28.1120   -5.1650    0.3270 C.3     1  UNL1        0.0276
     92 C          28.2080   -4.2020    1.5280 C.3     1  UNL1        0.1723
     93 C          27.1970   -3.0670    1.3660 C.3     1  UNL1        0.0282
@<TRIPOS>BOND
     1    32    82    1
     2    41    81    1
     3    64    82    1
     4    64    84    1
     5    82    81    1
     6    82    83    1
     7    81    31    1
     8    81    80    1
     9    66    84    2
    10    42    83    1
    11    45    83    1
    12    84    85    1
    13    83    33    1
    14     5    80    1
    15    80    79    2
    16    85     2    1
    17    85    86    2
    18     1    86    1
    19    79     6    1
    20    79    78    1
    21    86    87    1
    22     8    77    1
    23    78    77    2
    24    78     7    1
    25    77    76    1
    26    87     3    1
    27    87    88    2
    28     4    88    1
    29    88    89    1
    30    10    75    1
    31    76    75    2
    32    76     9    1
    33    75    74    1
    34    89    34    1
    35    89    43    1
    36    89    90    1
    37    44    91    1
    38    11    73    1
    39    74    73    2
    40    74    12    1
    41    35    90    1
    42    73    59    1
    43    91    90    1
    44    91    36    1
    45    91    92    1
    46    90    68    1
    47    13    93    1
    48    20    58    1
    49    21    59    1
    50    58    63    1
    51    37    93    1
    52    93    92    1
    53    93    49    1
    54    59    56    1
    55    59    57    1
    56    92    72    1
    57    92    70    1
    58    72    55    1
    59    46    71    1
    60    68    27    1
    61    56    61    1
    62    17    51    1
    63    26    67    1
    64    50    16    1
    65    50    49    1
    66    62    61    1
    67    62    69    1
    68    38    48    1
    69    49    51    1
    70    49    15    1
    71    40    71    1
    72    51    55    1
    73    51    53    1
    74    71    69    1
    75    71    30    1
    76    29    70    1
    77    61    63    1
    78    61    23    1
    79    63    24    1
    80    63    65    1
    81    55    57    1
    82    55    18    1
    83    57    19    1
    84    57    39    1
    85    69    67    1
    86    69    28    1
    87    67    65    1
    88    67    60    1
    89    48    65    1
    90    48    14    1
    91    65    25    1
    92    52    53    1
    93    52    47    1
    94    53    54    2
    95    60    22    1
