@<TRIPOS>MOLECULE
70.64922
 93 95 0 0 0
SMALL
GASTEIGER

@<TRIPOS>ATOM
      1 H          29.2740   -4.7950   -4.6390 H       1  UNL1        0.0620
      2 H          31.5180   -6.7050   -5.5630 H       1  UNL1        0.0689
      3 H          30.6040   -7.2850   -3.3080 H       1  UNL1        0.0615
      4 H          28.5560   -5.2180   -2.3140 H       1  UNL1        0.0573
      5 H          34.2840   -2.8630   -6.5310 H       1  UNL1        0.0573
      6 H          31.4970   -2.3620   -5.3330 H       1  UNL1        0.0614
      7 H          34.3160   -2.6080   -4.0320 H       1  UNL1        0.0617
      8 H          31.4430   -2.4910   -2.9390 H       1  UNL1        0.0618
      9 H          34.2220   -2.6010   -1.5410 H       1  UNL1        0.0618
     10 H          31.3180   -2.7030   -0.5330 H       1  UNL1        0.0617
     11 H          31.1570   -2.9770    1.8390 H       1  UNL1        0.0598
     12 H          34.0650   -2.6670    0.9290 H       1  UNL1        0.0615
     13 H          28.4230   -4.5390    2.2340 H       1  UNL1        0.0342
     14 H          38.7050   -1.2600    4.9500 H       1  UNL1        0.1186
     15 H          28.4470   -5.2670    5.2010 H       1  UNL1        0.0604
     16 H          26.7230   -4.0520    4.5190 H       1  UNL1        0.2098
     17 H          29.9700   -3.0200    3.8160 H       1  UNL1        0.0465
     18 H          31.1470   -5.6480    4.9020 H       1  UNL1        0.0607
     19 H          33.2110   -4.9800    3.6680 H       1  UNL1        0.0319
     20 H          35.2560   -0.7060    2.9390 H       1  UNL1        0.2101
     21 H          32.1620   -2.1120    3.9060 H       1  UNL1        0.0642
     22 H          37.4270    0.0260    7.5670 H       1  UNL1        0.2100
     23 H          34.7890   -3.2120    5.2090 H       1  UNL1        0.0937
     24 H          36.7000   -2.4410    3.8240 H       1  UNL1        0.0660
     25 H          36.9970   -2.2180    6.2730 H       1  UNL1        0.0512
     26 H          35.7680    0.5810    6.0100 H       1  UNL1        0.0635
     27 H          31.3080   -5.4320   -0.7510 H       1  UNL1        0.2098
     28 H          34.5720   -1.9610    7.2680 H       1  UNL1        0.0620
     29 H          30.3220   -7.8570    3.6280 H       1  UNL1        0.2128
     30 H          33.8830    0.1390    8.4140 H       1  UNL1        0.0255
     31 H          32.9570   -2.1010   -8.5390 H       1  UNL1        0.0343
     32 H          31.5630   -4.2060   -9.1670 H       1  UNL1        0.0734
     33 H          34.4470   -4.7310   -8.2770 H       1  UNL1        0.0265
     34 H          29.7130   -7.8540   -1.1730 H       1  UNL1        0.0332
     35 H          29.3140   -5.1740    0.2860 H       1  UNL1        0.0598
     36 H          30.2620   -7.8210    1.4710 H       1  UNL1        0.0342
     37 H          27.5210   -5.8340    3.0130 H       1  UNL1        0.0342
     38 H          37.9130    0.1320    4.8160 H       1  UNL1        0.1186
     39 H          32.8350   -4.1310    5.1470 H       1  UNL1        0.0319
     40 H          32.5410   -0.5820    7.5020 H       1  UNL1        0.0255
     41 H          31.4590   -2.3440   -7.6770 H       1  UNL1        0.0343
     42 H          33.9700   -3.9750   -9.8170 H       1  UNL1        0.0265
     43 H          28.1210   -7.1730   -0.8290 H       1  UNL1        0.0332
     44 H          28.5430   -7.4780    1.4430 H       1  UNL1        0.0342
     45 H          33.5260   -5.6560   -9.4510 H       1  UNL1        0.0265
     46 H          33.3750    0.8200    6.8500 H       1  UNL1        0.0255
     47 H          30.4260   -1.8780    6.9360 H       1  UNL1        0.2951
     48 N          38.0950   -0.6340    5.4790 N.3     1  UNL1       -0.3229
     49 C          28.6060   -4.5680    4.3710 C.3     1  UNL1        0.0754
     50 O          27.5720   -3.5800    4.4440 O.3     1  UNL1       -0.3907
     51 C          29.9700   -3.8840    4.4890 C.3     1  UNL1        0.1084
     52 O          30.3300   -2.0690    5.9790 O.3     1  UNL1       -0.4803
     53 C          30.1570   -3.4020    5.9030 C.2     1  UNL1        0.3128
     54 O          30.2070   -4.0930    6.9080 O.2     1  UNL1       -0.2505
     55 C          31.1000   -4.8600    4.1370 C.3     1  UNL1        0.0799
     56 O          34.1080   -2.5220    3.3770 O.3     1  UNL1       -0.3413
     57 C          32.5170   -4.2480    4.1040 C.3     1  UNL1        0.0045
     58 O          36.0240   -0.5390    3.5230 O.3     1  UNL1       -0.3851
     59 C          32.7210   -2.8980    3.3870 C.3     1  UNL1        0.0826
     60 O          36.4890   -0.1560    7.7850 O.3     1  UNL1       -0.3876
     61 C          34.6930   -2.2710    4.6570 C.3     1  UNL1        0.1875
     62 O          33.9120   -1.3440    5.4070 O.3     1  UNL1       -0.3431
     63 C          36.1050   -1.7020    4.3730 C.3     1  UNL1        0.1234
     64 O          32.0050   -5.1600   -7.3750 O.3     1  UNL1       -0.4582
     65 C          36.7910   -1.3130    5.6890 C.3     1  UNL1        0.0646
     66 O          29.8930   -4.2780   -7.1090 O.2     1  UNL1       -0.2456
     67 C          35.8740   -0.3890    6.5150 C.3     1  UNL1        0.0987
     68 O          31.1640   -6.0280    0.0050 O.3     1  UNL1       -0.3913
     69 C          34.4910   -1.0370    6.6810 C.3     1  UNL1        0.0863
     70 O          29.6180   -7.2220    3.8460 O.3     1  UNL1       -0.3643
     71 C          33.5250   -0.1100    7.4110 C.3     1  UNL1       -0.0361
     72 O          30.8690   -5.5160    2.8820 O.3     1  UNL1       -0.3444
     73 C          32.2340   -2.8890    1.9560 C.2     1  UNL1       -0.0555
     74 C          32.9830   -2.7510    0.8500 C.2     1  UNL1       -0.0633
     75 C          32.4040   -2.6890   -0.4730 C.2     1  UNL1       -0.0620
     76 C          33.1360   -2.6090   -1.5940 C.2     1  UNL1       -0.0618
     77 C          32.5300   -2.5360   -2.9030 C.2     1  UNL1       -0.0618
     78 C          33.2310   -2.5420   -4.0470 C.2     1  UNL1       -0.0621
     79 C          32.5780   -2.5050   -5.3340 C.2     1  UNL1       -0.0656
     80 C          33.2100   -2.6960   -6.5020 C.2     1  UNL1       -0.0805
     81 C          32.4650   -2.7600   -7.8130 C.3     1  UNL1        0.0026
     82 C          32.3380   -4.1890   -8.3910 C.3     1  UNL1        0.1040
     83 C          33.6480   -4.6550   -9.0230 C.3     1  UNL1       -0.0274
     84 C          30.7930   -5.0330   -6.7830 C.2     1  UNL1        0.3322
     85 C          30.7910   -5.9040   -5.5910 C.2     1  UNL1        0.0225
     86 C          29.9630   -5.6360   -4.5700 C.2     1  UNL1       -0.0553
     87 C          29.9580   -6.4090   -3.3500 C.2     1  UNL1       -0.0654
     88 C          29.2040   -6.0920   -2.2860 C.2     1  UNL1       -0.0816
     89 C          29.1690   -6.9120   -1.0210 C.3     1  UNL1       -0.0081
     90 C          29.7570   -6.1710    0.1960 C.3     1  UNL1        0.0635
     91 C          29.5310   -6.9990    1.4690 C.3     1  UNL1        0.0276
     92 C          29.6510   -6.2420    2.8090 C.3     1  UNL1        0.1723
     93 C          28.4750   -5.2910    3.0310 C.3     1  UNL1        0.0282
@<TRIPOS>BOND
     1    42    83    1
     2    45    83    1
     3    32    82    1
     4    83    82    1
     5    83    33    1
     6    31    81    1
     7    82    81    1
     8    82    64    1
     9    81    41    1
    10    81    80    1
    11    64    84    1
    12    66    84    2
    13    84    85    1
    14     5    80    1
    15    80    79    2
    16    85     2    1
    17    85    86    2
    18    79     6    1
    19    79    78    1
    20     1    86    1
    21    86    87    1
    22    78     7    1
    23    78    77    2
    24    87     3    1
    25    87    88    2
    26     8    77    1
    27    77    76    1
    28     4    88    1
    29    88    89    1
    30    76     9    1
    31    76    75    2
    32    34    89    1
    33    89    43    1
    34    89    90    1
    35    27    68    1
    36    10    75    1
    37    75    74    1
    38    68    90    1
    39    90    35    1
    40    90    91    1
    41    74    12    1
    42    74    73    2
    43    44    91    1
    44    91    36    1
    45    91    92    1
    46    11    73    1
    47    73    59    1
    48    13    93    1
    49    92    72    1
    50    92    93    1
    51    92    70    1
    52    72    55    1
    53    20    58    1
    54    37    93    1
    55    93    49    1
    56    56    59    1
    57    56    61    1
    58    59    21    1
    59    59    57    1
    60    58    63    1
    61    29    70    1
    62    19    57    1
    63    17    51    1
    64    24    63    1
    65    57    55    1
    66    57    39    1
    67    55    51    1
    68    55    18    1
    69    49    50    1
    70    49    51    1
    71    49    15    1
    72    63    61    1
    73    63    65    1
    74    50    16    1
    75    51    53    1
    76    61    23    1
    77    61    62    1
    78    38    48    1
    79    14    48    1
    80    62    69    1
    81    48    65    1
    82    65    25    1
    83    65    67    1
    84    53    52    1
    85    53    54    2
    86    52    47    1
    87    26    67    1
    88    67    69    1
    89    67    60    1
    90    69    28    1
    91    69    71    1
    92    46    71    1
    93    71    40    1
    94    71    30    1
    95    22    60    1
