@<TRIPOS>MOLECULE
65.38689
 93 95 0 0 0
SMALL
GASTEIGER

@<TRIPOS>ATOM
      1 H          29.7310   -5.5280   -4.2830 H       1  UNL1        0.0620
      2 H          32.1130   -7.2480   -5.2340 H       1  UNL1        0.0689
      3 H          31.6930   -7.3930   -2.7510 H       1  UNL1        0.0615
      4 H          28.9900   -6.1300   -1.9990 H       1  UNL1        0.0573
      5 H          27.5810   -3.8460   -6.3950 H       1  UNL1        0.0573
      6 H          29.2700   -2.0070   -4.5970 H       1  UNL1        0.0614
      7 H          26.8990   -3.9420   -4.0260 H       1  UNL1        0.0617
      8 H          28.6230   -2.1080   -2.2520 H       1  UNL1        0.0618
      9 H          26.4680   -4.2680   -1.6480 H       1  UNL1        0.0618
     10 H          28.0670   -2.3440    0.1470 H       1  UNL1        0.0617
     11 H          27.4450   -2.6630    2.5570 H       1  UNL1        0.0598
     12 H          26.1790   -4.7550    0.6990 H       1  UNL1        0.0615
     13 H          30.2940   -7.5750    4.6470 H       1  UNL1        0.0342
     14 H          20.5770   -3.2620    5.9010 H       1  UNL1        0.1186
     15 H          31.3820   -4.8760    5.5790 H       1  UNL1        0.0604
     16 H          32.0130   -6.6550    6.7560 H       1  UNL1        0.2098
     17 H          28.6560   -6.0940    6.1770 H       1  UNL1        0.0465
     18 H          29.1210   -3.7720    4.2080 H       1  UNL1        0.0607
     19 H          26.9850   -3.5500    5.2170 H       1  UNL1        0.0319
     20 H          23.1650   -3.0280    2.8180 H       1  UNL1        0.2101
     21 H          26.1690   -5.4230    2.9660 H       1  UNL1        0.0642
     22 H          19.8470   -6.2560    5.1160 H       1  UNL1        0.2100
     23 H          24.5020   -5.0980    5.1820 H       1  UNL1        0.0937
     24 H          23.0690   -3.0600    5.2380 H       1  UNL1        0.0660
     25 H          22.0080   -5.1320    6.0850 H       1  UNL1        0.0512
     26 H          21.0640   -5.6410    3.2110 H       1  UNL1        0.0635
     27 H          30.6690   -4.7720   -0.4510 H       1  UNL1        0.2098
     28 H          23.2210   -7.1120    4.8400 H       1  UNL1        0.0620
     29 H          31.0630   -4.6210    2.0280 H       1  UNL1        0.2128
     30 H          21.9700   -8.5980    3.2880 H       1  UNL1        0.0255
     31 H          30.0370   -2.0010   -6.8150 H       1  UNL1        0.0343
     32 H          29.4870   -4.6990   -8.1640 H       1  UNL1        0.0734
     33 H          31.9970   -2.9160   -8.0800 H       1  UNL1        0.0265
     34 H          31.1710   -7.7070   -0.4650 H       1  UNL1        0.0332
     35 H          28.9850   -5.8750    0.6820 H       1  UNL1        0.0598
     36 H          31.4340   -7.2290    1.9240 H       1  UNL1        0.0342
     37 H          31.8840   -6.8880    4.3210 H       1  UNL1        0.0342
     38 H          20.2370   -3.5880    4.3650 H       1  UNL1        0.1186
     39 H          26.7120   -5.2690    5.2500 H       1  UNL1        0.0319
     40 H          23.6320   -8.3180    2.7260 H       1  UNL1        0.0255
     41 H          28.8190   -2.3290   -8.0470 H       1  UNL1        0.0343
     42 H          30.8880   -3.0400   -9.4670 H       1  UNL1        0.0265
     43 H          29.4530   -8.0980   -0.3460 H       1  UNL1        0.0332
     44 H          29.7590   -7.7810    2.1530 H       1  UNL1        0.0342
     45 H          31.8530   -4.4350   -8.9490 H       1  UNL1        0.0265
     46 H          22.3010   -7.4740    1.9490 H       1  UNL1        0.0255
     47 H          29.8320   -2.5830    7.5220 H       1  UNL1        0.2951
     48 N          20.4270   -4.0470    5.2650 N.3     1  UNL1       -0.3229
     49 C          30.6860   -5.7180    5.6650 C.3     1  UNL1        0.0754
     50 O          31.0620   -6.4600    6.8320 O.3     1  UNL1       -0.3907
     51 C          29.2430   -5.2370    5.8170 C.3     1  UNL1        0.1084
     52 O          30.0570   -3.1940    6.7890 O.3     1  UNL1       -0.4803
     53 C          29.1270   -4.1630    6.8690 C.2     1  UNL1        0.3128
     54 O          28.2220   -4.0700    7.6860 O.2     1  UNL1       -0.2505
     55 C          28.6560   -4.7260    4.4880 C.3     1  UNL1        0.0799
     56 O          25.0300   -3.8110    3.6350 O.3     1  UNL1       -0.3413
     57 C          27.1420   -4.4680    4.6350 C.3     1  UNL1        0.0045
     58 O          22.3540   -3.2250    3.3330 O.3     1  UNL1       -0.3851
     59 C          26.3040   -4.4030    3.3480 C.3     1  UNL1        0.0826
     60 O          20.5480   -6.8550    4.7830 O.3     1  UNL1       -0.3876
     61 C          24.0940   -4.7060    4.2430 C.3     1  UNL1        0.1875
     62 O          23.7930   -5.7840    3.3580 O.3     1  UNL1       -0.3431
     63 C          22.8270   -3.8660    4.5360 C.3     1  UNL1        0.1234
     64 O          30.7150   -4.6250   -6.4770 O.3     1  UNL1       -0.4582
     65 C          21.7160   -4.7650    5.0930 C.3     1  UNL1        0.0646
     66 O          31.1020   -6.5880   -7.6140 O.2     1  UNL1       -0.2456
     67 C          21.4920   -5.9760    4.1640 C.3     1  UNL1        0.0987
     68 O          30.8880   -5.1380    0.4280 O.3     1  UNL1       -0.3913
     69 C          22.8270   -6.6910    3.9050 C.3     1  UNL1        0.0863
     70 O          31.0090   -4.7550    2.9990 O.3     1  UNL1       -0.3643
     71 C          22.6640   -7.8390    2.9160 C.3     1  UNL1       -0.0361
     72 O          28.8810   -5.6650    3.4250 O.3     1  UNL1       -0.3444
     73 C          26.8950   -3.5510    2.2590 C.2     1  UNL1       -0.0555
     74 C          26.7630   -3.8740    0.9630 C.2     1  UNL1       -0.0633
     75 C          27.3800   -3.1450   -0.1170 C.2     1  UNL1       -0.0620
     76 C          27.1640   -3.4680   -1.4000 C.2     1  UNL1       -0.0618
     77 C          27.8620   -2.8450   -2.5000 C.2     1  UNL1       -0.0618
     78 C          27.6540   -3.1980   -3.7770 C.2     1  UNL1       -0.0621
     79 C          28.4700   -2.6990   -4.8570 C.2     1  UNL1       -0.0656
     80 C          28.3560   -3.1330   -6.1210 C.2     1  UNL1       -0.0805
     81 C          29.3510   -2.7690   -7.1950 C.3     1  UNL1        0.0026
     82 C          30.1610   -3.9980   -7.6540 C.3     1  UNL1        0.1040
     83 C          31.2840   -3.5700   -8.5950 C.3     1  UNL1       -0.0274
     84 C          31.0350   -5.9350   -6.5850 C.2     1  UNL1        0.3322
     85 C          31.3210   -6.5100   -5.2570 C.2     1  UNL1        0.0225
     86 C          30.5630   -6.2230   -4.1870 C.2     1  UNL1       -0.0553
     87 C          30.7800   -6.8150   -2.8870 C.2     1  UNL1       -0.0654
     88 C          29.9190   -6.6820   -1.8650 C.2     1  UNL1       -0.0816
     89 C          30.1630   -7.2760   -0.4990 C.3     1  UNL1       -0.0081
     90 C          30.0110   -6.2540    0.6460 C.3     1  UNL1        0.0635
     91 C          30.3890   -6.8970    1.9920 C.3     1  UNL1        0.0276
     92 C          30.2660   -5.9490    3.2040 C.3     1  UNL1        0.1723
     93 C          30.8250   -6.6330    4.4520 C.3     1  UNL1        0.0282
@<TRIPOS>BOND
     1    42    83    1
     2    45    83    1
     3    83    33    1
     4    83    82    1
     5    32    82    1
     6    41    81    1
     7    82    81    1
     8    82    64    1
     9    66    84    2
    10    81    31    1
    11    81    80    1
    12    84    64    1
    13    84    85    1
    14     5    80    1
    15    80    79    2
    16    85     2    1
    17    85    86    2
    18    79     6    1
    19    79    78    1
    20     1    86    1
    21    86    87    1
    22     7    78    1
    23    78    77    2
    24    87     3    1
    25    87    88    2
    26    77     8    1
    27    77    76    1
    28     4    88    1
    29    88    89    1
    30     9    76    1
    31    76    75    2
    32    89    34    1
    33    89    43    1
    34    89    90    1
    35    27    68    1
    36    75    10    1
    37    75    74    1
    38    68    90    1
    39    90    35    1
    40    90    91    1
    41    12    74    1
    42    74    73    2
    43    36    91    1
    44    46    71    1
    45    91    44    1
    46    91    92    1
    47    29    70    1
    48    73    11    1
    49    73    59    1
    50    40    71    1
    51    20    58    1
    52    71    30    1
    53    71    69    1
    54    21    59    1
    55    70    92    1
    56    92    72    1
    57    92    93    1
    58    26    67    1
    59    58    63    1
    60    59    56    1
    61    59    57    1
    62    62    69    1
    63    62    61    1
    64    72    55    1
    65    56    61    1
    66    69    67    1
    67    69    28    1
    68    67    60    1
    69    67    65    1
    70    18    55    1
    71    61    63    1
    72    61    23    1
    73    37    93    1
    74    38    48    1
    75    93    13    1
    76    93    49    1
    77    55    57    1
    78    55    51    1
    79    63    65    1
    80    63    24    1
    81    57    19    1
    82    57    39    1
    83    60    22    1
    84    65    48    1
    85    65    25    1
    86    48    14    1
    87    15    49    1
    88    49    51    1
    89    49    50    1
    90    51    17    1
    91    51    53    1
    92    16    50    1
    93    52    53    1
    94    52    47    1
    95    53    54    2
