@<TRIPOS>MOLECULE
80.21092
 93 95 0 0 0
SMALL
GASTEIGER

@<TRIPOS>ATOM
      1 H          32.7990   -9.8520   -1.8130 H       1  UNL1        0.0620
      2 H          31.7240  -12.5720   -0.8300 H       1  UNL1        0.0689
      3 H          30.0360  -10.8120   -0.7370 H       1  UNL1        0.0615
      4 H          31.1120   -8.0220   -1.4580 H       1  UNL1        0.0573
      5 H          37.0570  -12.1440    0.1410 H       1  UNL1        0.0573
      6 H          35.1610   -9.7550   -0.2100 H       1  UNL1        0.0614
      7 H          36.0380  -11.2080    2.3810 H       1  UNL1        0.0617
      8 H          33.4840   -9.7710    1.4480 H       1  UNL1        0.0618
      9 H          34.4430  -10.4020    4.3210 H       1  UNL1        0.0618
     10 H          31.7340   -9.8160    2.9840 H       1  UNL1        0.0617
     11 H          29.9350   -9.5030    4.4200 H       1  UNL1        0.0598
     12 H          32.5990   -9.5850    5.9530 H       1  UNL1        0.0615
     13 H          29.6700   -4.8480    2.4890 H       1  UNL1        0.0342
     14 H          24.0310  -10.0130    8.4120 H       1  UNL1        0.1186
     15 H          27.0050   -4.9810    3.9800 H       1  UNL1        0.0604
     16 H          27.6800   -3.0090    3.0400 H       1  UNL1        0.2098
     17 H          29.7920   -4.7190    5.2210 H       1  UNL1        0.0465
     18 H          28.0080   -7.2240    5.2680 H       1  UNL1        0.0607
     19 H          29.5950   -6.7660    7.2350 H       1  UNL1        0.0319
     20 H          27.6530  -11.2220    7.0710 H       1  UNL1        0.2101
     21 H          30.5940   -8.9770    7.3580 H       1  UNL1        0.0642
     22 H          25.1760   -9.8260   11.3680 H       1  UNL1        0.2100
     23 H          27.8420   -7.9150    7.8800 H       1  UNL1        0.0937
     24 H          26.0660   -9.3750    6.9390 H       1  UNL1        0.0660
     25 H          25.6070   -8.4370    9.1860 H       1  UNL1        0.0512
     26 H          26.9620  -10.9380   10.3360 H       1  UNL1        0.0635
     27 H          29.0570   -5.8010   -1.2170 H       1  UNL1        0.2098
     28 H          27.9670   -8.0300   10.2860 H       1  UNL1        0.0620
     29 H          27.6340   -8.3410    2.9180 H       1  UNL1        0.2128
     30 H          28.6590   -9.2840   12.3200 H       1  UNL1        0.0255
     31 H          37.8180  -11.3360   -2.0590 H       1  UNL1        0.0343
     32 H          35.9670  -11.5690   -3.7470 H       1  UNL1        0.0734
     33 H          36.3210  -13.8910   -1.8190 H       1  UNL1        0.0265
     34 H          28.3830   -9.1480   -0.4950 H       1  UNL1        0.0332
     35 H          27.7980   -6.9610    0.3100 H       1  UNL1        0.0598
     36 H          30.5700   -7.1570    1.5410 H       1  UNL1        0.0342
     37 H          28.0560   -4.9930    1.7960 H       1  UNL1        0.0342
     38 H          24.8890  -11.2520    8.9720 H       1  UNL1        0.1186
     39 H          30.9310   -6.8400    6.0980 H       1  UNL1        0.0319
     40 H          30.0320   -8.9990   11.2290 H       1  UNL1        0.0255
     41 H          36.6120  -10.0630   -2.0650 H       1  UNL1        0.0343
     42 H          37.2000  -13.5430   -3.3020 H       1  UNL1        0.0265
     43 H          28.5720   -7.9720   -1.7930 H       1  UNL1        0.0332
     44 H          29.5110   -8.5510    1.7090 H       1  UNL1        0.0342
     45 H          35.4870  -14.0040   -3.3770 H       1  UNL1        0.0265
     46 H          29.2940  -10.5920   11.2930 H       1  UNL1        0.0255
     47 H          27.9130   -3.6170    7.8050 H       1  UNL1        0.2951
     48 N          24.6320  -10.2810    9.1930 N.3     1  UNL1       -0.3229
     49 C          28.0680   -4.7170    3.9220 C.3     1  UNL1        0.0754
     50 O          28.1400   -3.2890    3.8520 O.3     1  UNL1       -0.3907
     51 C          28.8080   -5.2030    5.1700 C.3     1  UNL1        0.1084
     52 O          28.5430   -3.7970    7.0770 O.3     1  UNL1       -0.4803
     53 C          28.0080   -4.8240    6.3910 C.2     1  UNL1        0.3128
     54 O          26.9970   -5.3800    6.7950 O.2     1  UNL1       -0.2505
     55 C          28.9800   -6.7290    5.1490 C.3     1  UNL1        0.0799
     56 O          28.6890   -9.3430    6.6270 O.3     1  UNL1       -0.3413
     57 C          29.9150   -7.2120    6.2870 C.3     1  UNL1        0.0045
     58 O          26.8360  -11.1450    7.6060 O.3     1  UNL1       -0.3851
     59 C          29.9810   -8.7490    6.4780 C.3     1  UNL1        0.0826
     60 O          26.0900   -9.5040   11.5170 O.3     1  UNL1       -0.3876
     61 C          28.0120   -8.9960    7.8400 C.3     1  UNL1        0.1875
     62 O          28.7780   -9.4080    8.9700 O.3     1  UNL1       -0.3431
     63 C          26.6490   -9.7260    7.7980 C.3     1  UNL1        0.1234
     64 O          34.4450  -11.6710   -2.4270 O.3     1  UNL1       -0.4582
     65 C          25.8890   -9.4950    9.1110 C.3     1  UNL1        0.0646
     66 O          34.0700  -13.5160   -1.0900 O.2     1  UNL1       -0.2456
     67 C          26.7830   -9.8550   10.3150 C.3     1  UNL1        0.0987
     68 O          29.4520   -5.9650   -0.3430 O.3     1  UNL1       -0.3913
     69 C          28.1250   -9.1140   10.2130 C.3     1  UNL1        0.0863
     70 O          27.4960   -7.3800    2.8540 O.3     1  UNL1       -0.3643
     71 C          29.0740   -9.5190   11.3350 C.3     1  UNL1       -0.0361
     72 O          29.5520   -7.1430    3.9020 O.3     1  UNL1       -0.3444
     73 C          30.6010   -9.3960    5.2730 C.2     1  UNL1       -0.0555
     74 C          31.9010   -9.6940    5.1280 C.2     1  UNL1       -0.0633
     75 C          32.4310   -9.9610    3.8110 C.2     1  UNL1       -0.0620
     76 C          33.7120  -10.2430    3.5340 C.2     1  UNL1       -0.0618
     77 C          34.1660  -10.2300    2.1630 C.2     1  UNL1       -0.0618
     78 C          35.3420  -10.6990    1.7210 C.2     1  UNL1       -0.0621
     79 C          35.6900  -10.5400    0.3300 C.2     1  UNL1       -0.0656
     80 C          36.5480  -11.3170   -0.3460 C.2     1  UNL1       -0.0805
     81 C          36.7680  -11.1240   -1.8240 C.3     1  UNL1        0.0026
     82 C          35.8380  -11.9590   -2.7290 C.3     1  UNL1        0.1040
     83 C          36.2280  -13.4330   -2.8080 C.3     1  UNL1       -0.0274
     84 C          33.7370  -12.4440   -1.5710 C.2     1  UNL1        0.3322
     85 C          32.4150  -11.8560   -1.2630 C.2     1  UNL1        0.0225
     86 C          32.0810  -10.5650   -1.4150 C.2     1  UNL1       -0.0553
     87 C          30.7670  -10.0710   -1.0590 C.2     1  UNL1       -0.0654
     88 C          30.4020   -8.7800   -1.1320 C.2     1  UNL1       -0.0816
     89 C          29.0000   -8.3080   -0.8390 C.3     1  UNL1       -0.0081
     90 C          28.8690   -7.1600    0.1840 C.3     1  UNL1        0.0635
     91 C          29.5160   -7.4650    1.5410 C.3     1  UNL1        0.0276
     92 C          28.7960   -6.8140    2.7410 C.3     1  UNL1        0.1723
     93 C          28.6810   -5.2970    2.6450 C.3     1  UNL1        0.0282
@<TRIPOS>BOND
     1    32    82    1
     2    45    83    1
     3    42    83    1
     4    83    82    1
     5    83    33    1
     6    82    64    1
     7    82    81    1
     8    64    84    1
     9    41    81    1
    10    31    81    1
    11    81    80    1
    12     1    86    1
    13    43    89    1
    14    84    85    1
    15    84    66    2
    16     4    88    1
    17    86    85    2
    18    86    87    1
    19    85     2    1
    20    27    68    1
    21    88    87    2
    22    88    89    1
    23    87     3    1
    24    89    34    1
    25    89    90    1
    26    80     5    1
    27    80    79    2
    28    68    90    1
    29     6    79    1
    30    90    35    1
    31    90    91    1
    32    79    78    1
    33     8    77    1
    34    91    36    1
    35    91    44    1
    36    91    92    1
    37    78    77    2
    38    78     7    1
    39    37    93    1
    40    77    76    1
    41    13    93    1
    42    93    92    1
    43    93    49    1
    44    92    70    1
    45    92    72    1
    46    70    29    1
    47    10    75    1
    48    16    50    1
    49    76    75    2
    50    76     9    1
    51    75    74    1
    52    50    49    1
    53    72    55    1
    54    49    15    1
    55    49    51    1
    56    11    73    1
    57    74    73    2
    58    74    12    1
    59    55    51    1
    60    55    18    1
    61    55    57    1
    62    51    17    1
    63    51    53    1
    64    73    59    1
    65    39    57    1
    66    57    59    1
    67    57    19    1
    68    53    54    2
    69    53    52    1
    70    59    56    1
    71    59    21    1
    72    56    61    1
    73    24    63    1
    74    20    58    1
    75    52    47    1
    76    58    63    1
    77    63    61    1
    78    63    65    1
    79    61    23    1
    80    61    62    1
    81    14    48    1
    82    62    69    1
    83    38    48    1
    84    65    25    1
    85    65    48    1
    86    65    67    1
    87    69    28    1
    88    69    67    1
    89    69    71    1
    90    67    26    1
    91    67    60    1
    92    40    71    1
    93    46    71    1
    94    71    30    1
    95    22    60    1
