@<TRIPOS>MOLECULE
84.23466
 93 95 0 0 0
SMALL
GASTEIGER

@<TRIPOS>ATOM
      1 H          29.8280   -5.2220   -4.5760 H       1  UNL1        0.0620
      2 H          32.8330   -5.8780   -4.5010 H       1  UNL1        0.0689
      3 H          31.4830   -7.1340   -2.7570 H       1  UNL1        0.0615
      4 H          28.4810   -6.5860   -3.1100 H       1  UNL1        0.0573
      5 H          33.2360   -1.9820   -3.4830 H       1  UNL1        0.0573
      6 H          33.0600   -4.5150   -1.7490 H       1  UNL1        0.0614
      7 H          31.3880   -1.8890   -1.7680 H       1  UNL1        0.0617
      8 H          31.2360   -4.5590   -0.2460 H       1  UNL1        0.0618
      9 H          29.3980   -2.0460   -0.2430 H       1  UNL1        0.0618
     10 H          29.2340   -4.8520    1.0070 H       1  UNL1        0.0617
     11 H          27.0570   -5.3790    1.8730 H       1  UNL1        0.0598
     12 H          27.2990   -2.4160    1.0800 H       1  UNL1        0.0615
     13 H          24.0860   -7.7350   -1.9880 H       1  UNL1        0.0342
     14 H          22.6860   -6.4420    7.4360 H       1  UNL1        0.1186
     15 H          22.8780   -8.5410    0.7010 H       1  UNL1        0.0604
     16 H          21.7710   -9.1510   -1.1580 H       1  UNL1        0.2098
     17 H          22.7440   -5.8160   -0.6940 H       1  UNL1        0.0465
     18 H          24.3760   -6.5310    1.8140 H       1  UNL1        0.0607
     19 H          23.3470   -4.1110    1.3530 H       1  UNL1        0.0319
     20 H          25.7720   -4.6710    5.5300 H       1  UNL1        0.2101
     21 H          25.2360   -2.9520    2.2830 H       1  UNL1        0.0642
     22 H          21.1860   -3.6580    7.6980 H       1  UNL1        0.2100
     23 H          23.0670   -4.6950    3.4430 H       1  UNL1        0.0937
     24 H          23.9570   -6.2300    5.1890 H       1  UNL1        0.0660
     25 H          21.7540   -5.2030    5.6630 H       1  UNL1        0.0512
     26 H          23.2830   -2.8950    6.9870 H       1  UNL1        0.0635
     27 H          29.0070   -7.9930    1.0380 H       1  UNL1        0.2098
     28 H          21.7310   -2.9260    4.3300 H       1  UNL1        0.0620
     29 H          26.5140   -8.5760    1.1090 H       1  UNL1        0.2128
     30 H          21.5980   -0.7520    5.5260 H       1  UNL1        0.0255
     31 H          34.5200   -4.8050   -3.5290 H       1  UNL1        0.0343
     32 H          34.8680   -2.7830   -5.7190 H       1  UNL1        0.0734
     33 H          34.6960   -5.8250   -5.8580 H       1  UNL1        0.0265
     34 H          30.1070   -8.0350   -0.9380 H       1  UNL1        0.0332
     35 H          28.0050   -6.5510   -0.3850 H       1  UNL1        0.0598
     36 H          26.6930   -9.1140   -1.4310 H       1  UNL1        0.0342
     37 H          24.1870   -9.3120   -1.2110 H       1  UNL1        0.0342
     38 H          23.5300   -5.1830    7.9710 H       1  UNL1        0.1186
     39 H          24.5880   -4.0040    0.1180 H       1  UNL1        0.0319
     40 H          22.6200   -0.6390    4.0770 H       1  UNL1        0.0255
     41 H          35.5080   -3.3720   -3.5960 H       1  UNL1        0.0343
     42 H          36.1850   -4.8630   -5.8000 H       1  UNL1        0.0265
     43 H          29.0350   -8.9920   -1.9370 H       1  UNL1        0.0332
     44 H          26.5110   -7.5020   -2.1540 H       1  UNL1        0.0342
     45 H          35.0730   -4.7350   -7.1820 H       1  UNL1        0.0265
     46 H          23.3720   -0.7210    5.6630 H       1  UNL1        0.0255
     47 H          20.1090   -5.4390    1.3720 H       1  UNL1        0.2951
     48 N          22.6260   -5.4280    7.5450 N.3     1  UNL1       -0.3229
     49 C          22.9280   -7.9020   -0.1900 C.3     1  UNL1        0.0754
     50 O          21.7730   -8.1930   -0.9830 O.3     1  UNL1       -0.3907
     51 C          22.9210   -6.4260    0.2020 C.3     1  UNL1        0.1084
     52 O          20.7970   -5.4580    0.6740 O.3     1  UNL1       -0.4803
     53 C          21.7980   -6.2010    1.1830 C.2     1  UNL1        0.3128
     54 O          21.7570   -6.5820    2.3430 O.2     1  UNL1       -0.2505
     55 C          24.2580   -6.0230    0.8480 C.3     1  UNL1        0.0799
     56 O          25.1420   -4.6790    3.4120 O.3     1  UNL1       -0.3413
     57 C          24.3330   -4.4940    1.0670 C.3     1  UNL1        0.0045
     58 O          25.0590   -4.8280    6.1840 O.3     1  UNL1       -0.3851
     59 C          25.3370   -4.0370    2.1490 C.3     1  UNL1        0.0826
     60 O          21.2340   -3.0070    6.9660 O.3     1  UNL1       -0.3876
     61 C          23.9060   -4.3660    4.0610 C.3     1  UNL1        0.1875
     62 O          23.8010   -2.9630    4.2970 O.3     1  UNL1       -0.3431
     63 C          23.8980   -5.1550    5.3920 C.3     1  UNL1        0.1234
     64 O          33.0420   -3.5950   -5.9500 O.3     1  UNL1       -0.4582
     65 C          22.6340   -4.8140    6.1910 C.3     1  UNL1        0.0646
     66 O          30.9380   -4.1070   -6.5000 O.2     1  UNL1       -0.2456
     67 C          22.4890   -3.2860    6.3380 C.3     1  UNL1        0.0987
     68 O          28.1750   -8.3150    0.6430 O.3     1  UNL1       -0.3913
     69 C          22.5770   -2.6150    4.9580 C.3     1  UNL1        0.0863
     70 O          25.5540   -8.5360    0.9100 O.3     1  UNL1       -0.3643
     71 C          22.5310   -1.0950    5.0690 C.3     1  UNL1       -0.0361
     72 O          25.3570   -6.3920   -0.0050 O.3     1  UNL1       -0.3444
     73 C          26.7540   -4.3410    1.7550 C.2     1  UNL1       -0.0555
     74 C          27.6080   -3.4480    1.2310 C.2     1  UNL1       -0.0633
     75 C          28.9210   -3.8370    0.7740 C.2     1  UNL1       -0.0620
     76 C          29.7100   -3.0520    0.0270 C.2     1  UNL1       -0.0618
     77 C          30.9460   -3.5500   -0.5340 C.2     1  UNL1       -0.0618
     78 C          31.6780   -2.8830   -1.4380 C.2     1  UNL1       -0.0621
     79 C          32.8050   -3.5110   -2.0850 C.2     1  UNL1       -0.0656
     80 C          33.4760   -2.9780   -3.1170 C.2     1  UNL1       -0.0805
     81 C          34.5180   -3.7610   -3.8660 C.3     1  UNL1        0.0026
     82 C          34.3830   -3.7150   -5.4010 C.3     1  UNL1        0.1040
     83 C          35.1310   -4.8490   -6.0940 C.3     1  UNL1       -0.0274
     84 C          31.9300   -4.3450   -5.8160 C.2     1  UNL1        0.3322
     85 C          31.9130   -5.4050   -4.7970 C.2     1  UNL1        0.0225
     86 C          30.7340   -5.7280   -4.2410 C.2     1  UNL1       -0.0553
     87 C          30.5810   -6.6880   -3.1710 C.2     1  UNL1       -0.0654
     88 C          29.3780   -7.0220   -2.6750 C.2     1  UNL1       -0.0816
     89 C          29.1860   -7.9830   -1.5330 C.3     1  UNL1       -0.0081
     90 C          28.0060   -7.6240   -0.6040 C.3     1  UNL1        0.0635
     91 C          26.6540   -8.0390   -1.2090 C.3     1  UNL1        0.0276
     92 C          25.4390   -7.7850   -0.2910 C.3     1  UNL1        0.1723
     93 C          24.1680   -8.2330   -1.0120 C.3     1  UNL1        0.0282
@<TRIPOS>BOND
     1    45    83    1
     2    66    84    2
     3    83    33    1
     4    83    42    1
     5    83    82    1
     6    64    84    1
     7    64    82    1
     8    84    85    1
     9    32    82    1
    10    82    81    1
    11    85     2    1
    12    85    86    2
    13     1    86    1
    14    86    87    1
    15    81    41    1
    16    81    31    1
    17    81    80    1
    18     5    80    1
    19    87     3    1
    20    87    88    2
    21    80    79    2
    22     4    88    1
    23    88    89    1
    24    44    91    1
    25    79     6    1
    26    79    78    1
    27    13    93    1
    28    43    89    1
    29     7    78    1
    30    89    34    1
    31    89    90    1
    32    78    77    2
    33    36    91    1
    34    37    93    1
    35    91    90    1
    36    91    92    1
    37    16    50    1
    38    93    92    1
    39    93    49    1
    40    50    49    1
    41    17    51    1
    42    90    35    1
    43    90    68    1
    44    77     8    1
    45    77    76    1
    46    92    72    1
    47    92    70    1
    48     9    76    1
    49    49    51    1
    50    49    15    1
    51    72    55    1
    52    76    75    2
    53    39    57    1
    54    51    55    1
    55    51    53    1
    56    68    27    1
    57    52    53    1
    58    52    47    1
    59    75    10    1
    60    75    74    1
    61    55    57    1
    62    55    18    1
    63    70    29    1
    64    57    19    1
    65    57    59    1
    66    12    74    1
    67    53    54    2
    68    74    73    2
    69    73    11    1
    70    73    59    1
    71    59    21    1
    72    59    56    1
    73    56    61    1
    74    23    61    1
    75    61    62    1
    76    61    63    1
    77    40    71    1
    78    62    69    1
    79    28    69    1
    80    69    71    1
    81    69    67    1
    82    71    30    1
    83    71    46    1
    84    24    63    1
    85    63    58    1
    86    63    65    1
    87    20    58    1
    88    25    65    1
    89    65    67    1
    90    65    48    1
    91    67    60    1
    92    67    26    1
    93    60    22    1
    94    14    48    1
    95    48    38    1
