@<TRIPOS>MOLECULE
68.88865
 93 95 0 0 0
SMALL
GASTEIGER

@<TRIPOS>ATOM
      1 H          31.2690   -5.3940   -5.3410 H       1  UNL1        0.0620
      2 H          31.6150   -8.0430   -6.8910 H       1  UNL1        0.0689
      3 H          31.1510   -8.3710   -4.4620 H       1  UNL1        0.0615
      4 H          30.2540   -5.7410   -3.1500 H       1  UNL1        0.0573
      5 H          35.2370   -5.8270   -7.8170 H       1  UNL1        0.0573
      6 H          34.9240   -8.8890   -7.8770 H       1  UNL1        0.0614
      7 H          35.3710   -6.8390   -5.5770 H       1  UNL1        0.0617
      8 H          35.0210   -9.8960   -5.6650 H       1  UNL1        0.0618
      9 H          35.0750   -7.8180   -3.3540 H       1  UNL1        0.0618
     10 H          34.9720  -10.8930   -3.4170 H       1  UNL1        0.0617
     11 H          34.9980  -11.8310   -1.1130 H       1  UNL1        0.0598
     12 H          34.6220   -8.7830   -1.1600 H       1  UNL1        0.0615
     13 H          29.4540  -11.1630    1.7090 H       1  UNL1        0.0342
     14 H          39.5440  -10.4780    4.7680 H       1  UNL1        0.1186
     15 H          29.9800  -13.8230    0.2860 H       1  UNL1        0.0604
     16 H          28.4120  -13.8760    1.8470 H       1  UNL1        0.2098
     17 H          31.5390  -12.6310    2.6100 H       1  UNL1        0.0465
     18 H          32.6000  -12.6750   -0.2830 H       1  UNL1        0.0607
     19 H          34.3450  -12.7490    1.3960 H       1  UNL1        0.0319
     20 H          37.6670   -9.3610    1.3920 H       1  UNL1        0.2101
     21 H          34.0820   -9.7370    0.9510 H       1  UNL1        0.0642
     22 H          37.7560   -8.4930    6.5030 H       1  UNL1        0.2100
     23 H          35.4890  -11.2030    3.2840 H       1  UNL1        0.0937
     24 H          37.9420  -11.2320    2.8860 H       1  UNL1        0.0660
     25 H          37.2290  -10.7040    5.1960 H       1  UNL1        0.0512
     26 H          37.1900   -7.7540    4.3530 H       1  UNL1        0.0635
     27 H          29.2130   -9.3650   -3.3190 H       1  UNL1        0.2098
     28 H          34.8310   -9.6300    4.9740 H       1  UNL1        0.0620
     29 H          30.4760  -11.3360   -2.1720 H       1  UNL1        0.2128
     30 H          34.4220   -7.2720    5.6460 H       1  UNL1        0.0255
     31 H          34.5750   -7.9250   -9.9990 H       1  UNL1        0.0343
     32 H          33.2950   -5.1530   -9.6860 H       1  UNL1        0.0734
     33 H          32.5240   -7.5760  -11.3940 H       1  UNL1        0.0265
     34 H          28.9500   -7.5020   -1.8970 H       1  UNL1        0.0332
     35 H          31.5570   -9.1270   -1.8300 H       1  UNL1        0.0598
     36 H          28.7930   -9.7430   -0.6840 H       1  UNL1        0.0342
     37 H          28.5090  -11.8830    0.4080 H       1  UNL1        0.0342
     38 H          39.3710   -8.9610    4.2670 H       1  UNL1        0.1186
     39 H          33.5260  -11.5670    2.3860 H       1  UNL1        0.0319
     40 H          33.4530   -7.7240    4.2270 H       1  UNL1        0.0255
     41 H          35.3410   -6.3680  -10.3110 H       1  UNL1        0.0343
     42 H          33.2990   -6.0900  -11.9960 H       1  UNL1        0.0265
     43 H          30.4490   -7.0210   -1.1070 H       1  UNL1        0.0332
     44 H          30.0730   -9.0070    0.3030 H       1  UNL1        0.0342
     45 H          31.6570   -6.0500  -11.3130 H       1  UNL1        0.0265
     46 H          34.8860   -6.7290    4.0160 H       1  UNL1        0.0255
     47 H          33.0970  -15.6040    2.6760 H       1  UNL1        0.2951
     48 N          39.0010   -9.6330    4.9530 N.3     1  UNL1       -0.3229
     49 C          30.0830  -13.1430    1.1410 C.3     1  UNL1        0.0754
     50 O          29.2960  -13.6850    2.2090 O.3     1  UNL1       -0.3907
     51 C          31.5380  -13.0410    1.5900 C.3     1  UNL1        0.1084
     52 O          32.7960  -14.6760    2.7780 O.3     1  UNL1       -0.4803
     53 C          32.1360  -14.4240    1.6280 C.2     1  UNL1        0.3128
     54 O          32.1180  -15.2580    0.7380 O.2     1  UNL1       -0.2505
     55 C          32.3880  -12.1530    0.6590 C.3     1  UNL1        0.0799
     56 O          35.8930  -10.6800    1.3190 O.3     1  UNL1       -0.3413
     57 C          33.7350  -11.8380    1.3430 C.3     1  UNL1        0.0045
     58 O          38.1030   -9.2940    2.2670 O.3     1  UNL1       -0.3851
     59 C          34.5750  -10.6960    0.7480 C.3     1  UNL1        0.0826
     60 O          36.8110   -8.3700    6.2750 O.3     1  UNL1       -0.3876
     61 C          35.9420  -10.3810    2.7170 C.3     1  UNL1        0.1875
     62 O          35.2650   -9.1600    3.0050 O.3     1  UNL1       -0.3431
     63 C          37.4420  -10.2780    3.0880 C.3     1  UNL1        0.1234
     64 O          32.3220   -6.8420   -8.8660 O.3     1  UNL1       -0.4582
     65 C          37.5900   -9.8830    4.5630 C.3     1  UNL1        0.0646
     66 O          32.1740   -4.8730   -7.6730 O.2     1  UNL1       -0.2456
     67 C          36.7560   -8.6220    4.8670 C.3     1  UNL1        0.0987
     68 O          29.9690   -9.8390   -2.9230 O.3     1  UNL1       -0.3913
     69 C          35.3070   -8.8250    4.3980 C.3     1  UNL1        0.0863
     70 O          30.4770  -11.9130   -1.3800 O.3     1  UNL1       -0.3643
     71 C          34.4730   -7.5640    4.5930 C.3     1  UNL1       -0.0361
     72 O          31.7290  -10.9180    0.3450 O.3     1  UNL1       -0.3444
     73 C          34.8020  -10.8320   -0.7320 C.2     1  UNL1       -0.0555
     74 C          34.7860   -9.7800   -1.5650 C.2     1  UNL1       -0.0633
     75 C          34.9630   -9.8920   -2.9930 C.2     1  UNL1       -0.0620
     76 C          35.0770   -8.8170   -3.7860 C.2     1  UNL1       -0.0618
     77 C          35.1460   -8.9080   -5.2270 C.2     1  UNL1       -0.0618
     78 C          35.2650   -7.8290   -6.0150 C.2     1  UNL1       -0.0621
     79 C          35.1260   -7.9080   -7.4500 C.2     1  UNL1       -0.0656
     80 C          35.0780   -6.8200   -8.2350 C.2     1  UNL1       -0.0805
     81 C          34.6150   -6.8790   -9.6690 C.3     1  UNL1        0.0026
     82 C          33.2180   -6.2380   -9.8280 C.3     1  UNL1        0.1040
     83 C          32.6500   -6.5020  -11.2170 C.3     1  UNL1       -0.0274
     84 C          32.0240   -6.0790   -7.7820 C.2     1  UNL1        0.3322
     85 C          31.5930   -6.9790   -6.6910 C.2     1  UNL1        0.0225
     86 C          31.2720   -6.4740   -5.4910 C.2     1  UNL1       -0.0553
     87 C          30.9520   -7.3070   -4.3520 C.2     1  UNL1       -0.0654
     88 C          30.4420   -6.8140   -3.2130 C.2     1  UNL1       -0.0816
     89 C          30.0440   -7.5710   -1.9660 C.3     1  UNL1       -0.0081
     90 C          30.4640   -9.0490   -1.8300 C.3     1  UNL1        0.0635
     91 C          29.8800   -9.6700   -0.5490 C.3     1  UNL1        0.0276
     92 C          30.4310  -11.0800   -0.2310 C.3     1  UNL1        0.1723
     93 C          29.5290  -11.7650    0.7940 C.3     1  UNL1        0.0282
@<TRIPOS>BOND
     1    42    83    1
     2    33    83    1
     3    45    83    1
     4    83    82    1
     5    41    81    1
     6    31    81    1
     7    82    32    1
     8    82    81    1
     9    82    64    1
    10    81    80    1
    11    64    84    1
    12    80     5    1
    13    80    79    2
    14     6    79    1
    15    84    66    2
    16    84    85    1
    17    79    78    1
    18     2    85    1
    19    85    86    2
    20    78     7    1
    21    78    77    2
    22     8    77    1
    23    86     1    1
    24    86    87    1
    25    77    76    1
    26     3    87    1
    27    87    88    2
    28    76     9    1
    29    76    75    2
    30    10    75    1
    31    27    68    1
    32    88     4    1
    33    88    89    1
    34    75    74    1
    35    68    90    1
    36    29    70    1
    37    89    34    1
    38    89    90    1
    39    89    43    1
    40    35    90    1
    41    90    91    1
    42    74    12    1
    43    74    73    2
    44    70    92    1
    45    11    73    1
    46    73    59    1
    47    36    91    1
    48    91    92    1
    49    91    44    1
    50    18    55    1
    51    92    72    1
    52    92    93    1
    53    15    49    1
    54    72    55    1
    55    37    93    1
    56    55    57    1
    57    55    51    1
    58    54    53    2
    59    59    21    1
    60    59    56    1
    61    59    57    1
    62    93    49    1
    63    93    13    1
    64    49    51    1
    65    49    50    1
    66    56    61    1
    67    57    19    1
    68    57    39    1
    69    20    58    1
    70    51    53    1
    71    51    17    1
    72    53    52    1
    73    16    50    1
    74    58    63    1
    75    47    52    1
    76    61    62    1
    77    61    63    1
    78    61    23    1
    79    24    63    1
    80    62    69    1
    81    63    65    1
    82    46    71    1
    83    40    71    1
    84    38    48    1
    85    26    67    1
    86    69    71    1
    87    69    67    1
    88    69    28    1
    89    65    67    1
    90    65    48    1
    91    65    25    1
    92    71    30    1
    93    14    48    1
    94    67    60    1
    95    60    22    1
