@<TRIPOS>MOLECULE
61.68328
 93 95 0 0 0
SMALL
GASTEIGER

@<TRIPOS>ATOM
      1 H          29.4670   -6.0700   -4.4470 H       1  UNL1        0.0620
      2 H          32.3930   -6.5850   -5.2920 H       1  UNL1        0.0689
      3 H          31.9410   -7.1190   -2.8790 H       1  UNL1        0.0615
      4 H          29.0020   -6.5980   -2.1210 H       1  UNL1        0.0573
      5 H          25.7710   -4.7010   -6.7360 H       1  UNL1        0.0573
      6 H          28.3930   -3.8830   -5.3730 H       1  UNL1        0.0614
      7 H          25.4650   -4.0410   -4.3550 H       1  UNL1        0.0617
      8 H          28.2130   -3.5610   -3.0550 H       1  UNL1        0.0618
      9 H          25.3380   -3.6550   -1.8670 H       1  UNL1        0.0618
     10 H          28.1650   -3.4310   -0.6730 H       1  UNL1        0.0617
     11 H          28.2160   -3.3910    1.7140 H       1  UNL1        0.0598
     12 H          25.3390   -3.4480    0.6330 H       1  UNL1        0.0615
     13 H          29.9150   -7.8420    4.3750 H       1  UNL1        0.0342
     14 H          28.1670    1.1980    7.2950 H       1  UNL1        0.1186
     15 H          30.6710   -5.2170    5.7390 H       1  UNL1        0.0604
     16 H          31.1480   -7.1150    6.8330 H       1  UNL1        0.2098
     17 H          27.9180   -6.5560    5.5570 H       1  UNL1        0.0465
     18 H          28.8770   -3.9960    4.1500 H       1  UNL1        0.0607
     19 H          26.2930   -4.5500    4.9000 H       1  UNL1        0.0319
     20 H          27.1910    0.0270    3.5700 H       1  UNL1        0.2101
     21 H          25.4450   -3.2240    3.0440 H       1  UNL1        0.0642
     22 H          25.1080    1.2090    8.1670 H       1  UNL1        0.2100
     23 H          26.6250   -2.5780    5.7190 H       1  UNL1        0.0937
     24 H          28.2930   -0.7270    5.5740 H       1  UNL1        0.0660
     25 H          26.7890   -0.7000    7.5420 H       1  UNL1        0.0512
     26 H          24.8520    0.9770    5.8530 H       1  UNL1        0.0635
     27 H          30.8550   -4.9020   -0.5400 H       1  UNL1        0.2098
     28 H          24.5920   -1.9480    6.7710 H       1  UNL1        0.0620
     29 H          31.0630   -4.7450    2.0900 H       1  UNL1        0.2128
     30 H          22.4180   -0.7510    6.6650 H       1  UNL1        0.0255
     31 H          27.2200   -4.2900   -8.7420 H       1  UNL1        0.0343
     32 H          29.5340   -5.2830   -8.8030 H       1  UNL1        0.0734
     33 H          29.3740   -2.7390   -7.0800 H       1  UNL1        0.0265
     34 H          31.4920   -7.6380   -0.5960 H       1  UNL1        0.0332
     35 H          29.0740   -6.0470    0.4550 H       1  UNL1        0.0598
     36 H          31.4650   -7.3080    1.9050 H       1  UNL1        0.0342
     37 H          31.5110   -7.1030    4.4300 H       1  UNL1        0.0342
     38 H          27.1100    1.9310    6.3350 H       1  UNL1        0.1186
     39 H          26.3440   -5.4880    3.4200 H       1  UNL1        0.0319
     40 H          22.5690   -1.9470    5.3600 H       1  UNL1        0.0255
     41 H          27.3850   -5.9180   -8.1030 H       1  UNL1        0.0343
     42 H          29.2240   -2.7900   -8.8490 H       1  UNL1        0.0265
     43 H          29.8660   -8.3120   -0.4370 H       1  UNL1        0.0332
     44 H          29.8010   -7.9340    1.9580 H       1  UNL1        0.0342
     45 H          30.7360   -3.2550   -8.0510 H       1  UNL1        0.0265
     46 H          22.7820   -0.2400    4.9990 H       1  UNL1        0.0255
     47 H          27.3220   -4.6550    8.2690 H       1  UNL1        0.2951
     48 N          27.1610    1.3160    7.1580 N.3     1  UNL1       -0.3229
     49 C          30.0220   -6.0900    5.6030 C.3     1  UNL1        0.0754
     50 O          30.1960   -6.9320    6.7480 O.3     1  UNL1       -0.3907
     51 C          28.5580   -5.6660    5.4960 C.3     1  UNL1        0.1084
     52 O          27.3790   -5.2960    7.5310 O.3     1  UNL1       -0.4803
     53 C          28.2450   -4.7520    6.6530 C.2     1  UNL1        0.3128
     54 O          28.6570   -3.6140    6.8200 O.2     1  UNL1       -0.2505
     55 C          28.3100   -4.9350    4.1680 C.3     1  UNL1        0.0799
     56 O          27.0920   -2.1850    3.7370 O.3     1  UNL1       -0.3413
     57 C          26.8100   -4.6400    3.9390 C.3     1  UNL1        0.0045
     58 O          27.1490    0.5110    4.4210 O.3     1  UNL1       -0.3851
     59 C          26.5310   -3.3530    3.1310 C.3     1  UNL1        0.0826
     60 O          24.5050    0.5160    7.8240 O.3     1  UNL1       -0.3876
     61 C          26.4890   -1.7930    4.9720 C.3     1  UNL1        0.1875
     62 O          25.0950   -1.5440    4.8030 O.3     1  UNL1       -0.3431
     63 C          27.2270   -0.5140    5.4330 C.3     1  UNL1        0.1234
     64 O          29.6790   -5.4040   -6.7330 O.3     1  UNL1       -0.4582
     65 C          26.5950    0.0110    6.7280 C.3     1  UNL1        0.0646
     66 O          31.7560   -5.7440   -7.6480 O.2     1  UNL1       -0.2456
     67 C          25.0700    0.1630    6.5570 C.3     1  UNL1        0.0987
     68 O          30.9560   -5.2210    0.3770 O.3     1  UNL1       -0.3913
     69 C          24.4650   -1.1480    6.0300 C.3     1  UNL1        0.0863
     70 O          30.9270   -4.9450    3.0420 O.3     1  UNL1       -0.3643
     71 C          22.9720   -1.0080    5.7570 C.3     1  UNL1       -0.0361
     72 O          28.7360   -5.7580    3.0640 O.3     1  UNL1       -0.3444
     73 C          27.1280   -3.4020    1.7520 C.2     1  UNL1       -0.0555
     74 C          26.4260   -3.4430    0.6090 C.2     1  UNL1       -0.0633
     75 C          27.0780   -3.4820   -0.6790 C.2     1  UNL1       -0.0620
     76 C          26.4230   -3.5930   -1.8450 C.2     1  UNL1       -0.0618
     77 C          27.1300   -3.6680   -3.1020 C.2     1  UNL1       -0.0618
     78 C          26.5420   -3.9060   -4.2850 C.2     1  UNL1       -0.0621
     79 C          27.3290   -4.0710   -5.4860 C.2     1  UNL1       -0.0656
     80 C          26.8400   -4.5050   -6.6560 C.2     1  UNL1       -0.0805
     81 C          27.6270   -4.8650   -7.9020 C.3     1  UNL1        0.0026
     82 C          29.1700   -4.7520   -7.9140 C.3     1  UNL1        0.1040
     83 C          29.6440   -3.3010   -7.9780 C.3     1  UNL1       -0.0274
     84 C          30.9680   -5.8010   -6.7180 C.2     1  UNL1        0.3322
     85 C          31.3520   -6.2940   -5.3740 C.2     1  UNL1        0.0225
     86 C          30.5090   -6.3620   -4.3300 C.2     1  UNL1       -0.0553
     87 C          30.9040   -6.8150   -3.0160 C.2     1  UNL1       -0.0654
     88 C          30.0450   -6.8820   -1.9850 C.2     1  UNL1       -0.0816
     89 C          30.4240   -7.3860   -0.6160 C.3     1  UNL1       -0.0081
     90 C          30.1180   -6.3770    0.5100 C.3     1  UNL1        0.0635
     91 C          30.4050   -7.0210    1.8750 C.3     1  UNL1        0.0276
     92 C          30.1160   -6.1090    3.0840 C.3     1  UNL1        0.1723
     93 C          30.4390   -6.8770    4.3670 C.3     1  UNL1        0.0282
@<TRIPOS>BOND
     1    42    83    1
     2    32    82    1
     3    31    81    1
     4    41    81    1
     5    45    83    1
     6    83    82    1
     7    83    33    1
     8    82    81    1
     9    82    64    1
    10    81    80    1
    11    66    84    2
    12     5    80    1
    13    64    84    1
    14    84    85    1
    15    80    79    2
    16    79     6    1
    17    79    78    1
    18    85     2    1
    19    85    86    2
    20     1    86    1
    21     7    78    1
    22    86    87    1
    23    78    77    2
    24    77     8    1
    25    77    76    1
    26    87     3    1
    27    87    88    2
    28     4    88    1
    29    88    89    1
    30     9    76    1
    31    76    75    2
    32    75    10    1
    33    75    74    1
    34    89    34    1
    35    89    43    1
    36    89    90    1
    37    27    68    1
    38    68    90    1
    39    35    90    1
    40    90    91    1
    41    74    12    1
    42    74    73    2
    43    11    73    1
    44    73    59    1
    45    91    36    1
    46    91    44    1
    47    91    92    1
    48    29    70    1
    49    70    92    1
    50    21    59    1
    51    72    92    1
    52    72    55    1
    53    92    93    1
    54    59    56    1
    55    59    57    1
    56    39    57    1
    57    20    58    1
    58    56    61    1
    59    57    55    1
    60    57    19    1
    61    18    55    1
    62    55    51    1
    63    93    13    1
    64    93    37    1
    65    93    49    1
    66    58    63    1
    67    62    61    1
    68    62    69    1
    69    61    63    1
    70    61    23    1
    71    46    71    1
    72    40    71    1
    73    63    24    1
    74    63    65    1
    75    51    17    1
    76    51    49    1
    77    51    53    1
    78    49    15    1
    79    49    50    1
    80    71    69    1
    81    71    30    1
    82    26    67    1
    83    69    67    1
    84    69    28    1
    85    38    48    1
    86    67    65    1
    87    67    60    1
    88    53    54    2
    89    53    52    1
    90    65    48    1
    91    65    25    1
    92    50    16    1
    93    48    14    1
    94    52    47    1
    95    60    22    1
