@<TRIPOS>MOLECULE
64.31538
 93 95 0 0 0
SMALL
GASTEIGER

@<TRIPOS>ATOM
      1 H          28.9360   -5.5340   -5.3530 H       1  UNL1        0.0620
      2 H          31.9070   -4.7700   -4.9960 H       1  UNL1        0.0689
      3 H          31.0000   -6.3300   -3.1640 H       1  UNL1        0.0615
      4 H          27.9340   -6.5030   -3.3530 H       1  UNL1        0.0573
      5 H          29.9020   -0.0500   -6.4910 H       1  UNL1        0.0573
      6 H          28.2820   -2.6430   -6.1870 H       1  UNL1        0.0614
      7 H          28.4140   -0.1060   -4.4010 H       1  UNL1        0.0617
      8 H          27.7350   -3.0640   -3.8960 H       1  UNL1        0.0618
      9 H          27.2510   -0.5450   -2.1500 H       1  UNL1        0.0618
     10 H          27.5370   -3.5500   -1.5610 H       1  UNL1        0.0617
     11 H          27.5950   -4.0040    0.7890 H       1  UNL1        0.0598
     12 H          26.4200   -1.2360    0.1770 H       1  UNL1        0.0615
     13 H          26.3590   -8.6310    2.5310 H       1  UNL1        0.0342
     14 H          30.5120   -2.2280    7.3750 H       1  UNL1        0.1186
     15 H          27.7700   -7.3630    4.9170 H       1  UNL1        0.0604
     16 H          26.7460   -9.3360    5.2290 H       1  UNL1        0.2098
     17 H          25.0120   -6.6410    3.7850 H       1  UNL1        0.0465
     18 H          27.6260   -5.0400    3.6180 H       1  UNL1        0.0607
     19 H          25.2810   -3.8190    3.8200 H       1  UNL1        0.0319
     20 H          29.5860   -1.4460    3.5290 H       1  UNL1        0.2101
     21 H          25.9400   -2.0130    2.4450 H       1  UNL1        0.0642
     22 H          28.5740    0.0750    8.3710 H       1  UNL1        0.2100
     23 H          26.8690   -2.8710    5.0350 H       1  UNL1        0.0937
     24 H          29.3400   -3.1190    5.2450 H       1  UNL1        0.0660
     25 H          28.1620   -2.2470    7.2410 H       1  UNL1        0.0512
     26 H          28.5930    0.5600    6.0780 H       1  UNL1        0.0635
     27 H          29.8270   -5.3060   -0.6280 H       1  UNL1        0.2098
     28 H          25.9910   -1.0640    6.3230 H       1  UNL1        0.0620
     29 H          29.5410   -6.2400    1.8480 H       1  UNL1        0.2128
     30 H          25.6560    1.3810    6.6070 H       1  UNL1        0.0255
     31 H          29.9010   -0.8710   -8.8380 H       1  UNL1        0.0343
     32 H          31.4650   -2.9100   -8.9080 H       1  UNL1        0.0734
     33 H          32.3900   -0.6700   -7.0360 H       1  UNL1        0.0265
     34 H          29.9960   -7.8810   -1.5360 H       1  UNL1        0.0332
     35 H          27.6890   -6.0680   -0.6430 H       1  UNL1        0.0598
     36 H          28.8820   -8.5030    0.7720 H       1  UNL1        0.0342
     37 H          27.9670   -9.0070    3.1410 H       1  UNL1        0.0342
     38 H          30.6170   -0.7980    6.6510 H       1  UNL1        0.1186
     39 H          25.0210   -4.3740    2.1740 H       1  UNL1        0.0319
     40 H          25.0010    0.8090    5.0590 H       1  UNL1        0.0255
     41 H          29.1810   -2.3850   -8.3640 H       1  UNL1        0.0343
     42 H          32.3790   -0.5800   -8.8140 H       1  UNL1        0.0265
     43 H          28.3300   -8.3620   -1.8580 H       1  UNL1        0.0332
     44 H          27.1870   -8.2480    0.3150 H       1  UNL1        0.0342
     45 H          33.4120   -1.7510   -7.9670 H       1  UNL1        0.0265
     46 H          26.5290    1.6760    5.0840 H       1  UNL1        0.0255
     47 H          24.6090   -5.3320    6.8650 H       1  UNL1        0.2951
     48 N          30.0340   -1.3280    7.3110 N.3     1  UNL1       -0.3229
     49 C          26.8690   -7.5970    4.3370 C.3     1  UNL1        0.0754
     50 O          26.1410   -8.5900    5.0680 O.3     1  UNL1       -0.3907
     51 C          25.9990   -6.3490    4.1660 C.3     1  UNL1        0.1084
     52 O          24.5730   -5.7300    5.9700 O.3     1  UNL1       -0.4803
     53 C          25.8400   -5.6950    5.5150 C.2     1  UNL1        0.3128
     54 O          26.7140   -5.1310    6.1560 O.2     1  UNL1       -0.2505
     55 C          26.6710   -5.3700    3.1930 C.3     1  UNL1        0.0799
     56 O          27.7720   -2.6420    3.1770 O.3     1  UNL1       -0.3413
     57 C          25.8010   -4.1240    2.9050 C.3     1  UNL1        0.0045
     58 O          29.8170   -1.2920    4.4680 O.3     1  UNL1       -0.3851
     59 C          26.5970   -2.8920    2.4050 C.3     1  UNL1        0.0826
     60 O          27.7240    0.2350    7.9090 O.3     1  UNL1       -0.3876
     61 C          27.5220   -2.1730    4.5050 C.3     1  UNL1        0.1875
     62 O          26.9060   -0.8870    4.4730 O.3     1  UNL1       -0.3431
     63 C          28.8960   -2.1180    5.2120 C.3     1  UNL1        0.1234
     64 O          31.5000   -3.1500   -6.8460 O.3     1  UNL1       -0.4582
     65 C          28.7330   -1.5420    6.6240 C.3     1  UNL1        0.0646
     66 O          29.9210   -4.6470   -7.6030 O.2     1  UNL1       -0.2456
     67 C          27.9730   -0.2020    6.5690 C.3     1  UNL1        0.0987
     68 O          29.6140   -5.9530    0.0720 O.3     1  UNL1       -0.3913
     69 C          26.6590   -0.3740    5.7900 C.3     1  UNL1        0.0863
     70 O          29.0750   -6.6710    2.5990 O.3     1  UNL1       -0.3643
     71 C          25.9210    0.9510    5.6370 C.3     1  UNL1       -0.0361
     72 O          26.9230   -6.0390    1.9430 O.3     1  UNL1       -0.3444
     73 C          27.0670   -3.0760    0.9900 C.2     1  UNL1       -0.0555
     74 C          26.8940   -2.1960   -0.0080 C.2     1  UNL1       -0.0633
     75 C          27.3110   -2.5050   -1.3550 C.2     1  UNL1       -0.0620
     76 C          27.4300   -1.6010   -2.3380 C.2     1  UNL1       -0.0618
     77 C          27.8120   -2.0010   -3.6720 C.2     1  UNL1       -0.0618
     78 C          28.2750   -1.1630   -4.6110 C.2     1  UNL1       -0.0621
     79 C          28.6590   -1.6590   -5.9110 C.2     1  UNL1       -0.0656
     80 C          29.4850   -1.0190   -6.7510 C.2     1  UNL1       -0.0805
     81 C          29.9230   -1.6390   -8.0550 C.3     1  UNL1        0.0026
     82 C          31.3200   -2.3030   -8.0050 C.3     1  UNL1        0.1040
     83 C          32.4330   -1.2590   -7.9580 C.3     1  UNL1       -0.0274
     84 C          30.7170   -4.2510   -6.7680 C.2     1  UNL1        0.3322
     85 C          30.9280   -4.8730   -5.4440 C.2     1  UNL1        0.0225
     86 C          29.9030   -5.5020   -4.8510 C.2     1  UNL1       -0.0553
     87 C          30.0050   -6.1770   -3.5760 C.2     1  UNL1       -0.0654
     88 C          28.9280   -6.6560   -2.9340 C.2     1  UNL1       -0.0816
     89 C          28.9790   -7.4950   -1.6830 C.3     1  UNL1       -0.0081
     90 C          28.5240   -6.7420   -0.4190 C.3     1  UNL1        0.0635
     91 C          28.0960   -7.7430    0.6670 C.3     1  UNL1        0.0276
     92 C          27.8430   -7.1220    2.0540 C.3     1  UNL1        0.1723
     93 C          27.2550   -8.1860    2.9830 C.3     1  UNL1        0.0282
@<TRIPOS>BOND
     1    32    82    1
     2    31    81    1
     3    42    83    1
     4    41    81    1
     5    81    82    1
     6    81    80    1
     7    82    83    1
     8    82    64    1
     9    45    83    1
    10    83    33    1
    11    66    84    2
    12    64    84    1
    13    84    85    1
    14    80     5    1
    15    80    79    2
    16     6    79    1
    17    79    78    1
    18    85     2    1
    19    85    86    2
    20     1    86    1
    21    86    87    1
    22    78     7    1
    23    78    77    2
    24     8    77    1
    25    77    76    1
    26    87     3    1
    27    87    88    2
    28     4    88    1
    29    88    89    1
    30    76     9    1
    31    76    75    2
    32    43    89    1
    33    89    34    1
    34    89    90    1
    35    10    75    1
    36    75    74    1
    37    35    90    1
    38    27    68    1
    39    90    68    1
    40    90    91    1
    41    74    12    1
    42    74    73    2
    43    44    91    1
    44    91    36    1
    45    91    92    1
    46    11    73    1
    47    73    59    1
    48    29    70    1
    49    72    92    1
    50    72    55    1
    51    92    70    1
    52    92    93    1
    53    39    57    1
    54    59    21    1
    55    59    57    1
    56    59    56    1
    57    13    93    1
    58    57    55    1
    59    57    19    1
    60    93    37    1
    61    93    49    1
    62    56    61    1
    63    55    18    1
    64    55    51    1
    65    20    58    1
    66    17    51    1
    67    51    49    1
    68    51    53    1
    69    49    15    1
    70    49    50    1
    71    58    63    1
    72    62    61    1
    73    62    69    1
    74    61    23    1
    75    61    63    1
    76    40    71    1
    77    50    16    1
    78    46    71    1
    79    63    24    1
    80    63    65    1
    81    53    52    1
    82    53    54    2
    83    71    69    1
    84    71    30    1
    85    69    28    1
    86    69    67    1
    87    52    47    1
    88    26    67    1
    89    67    65    1
    90    67    60    1
    91    65    25    1
    92    65    48    1
    93    38    48    1
    94    48    14    1
    95    60    22    1
