@<TRIPOS>MOLECULE
67.05020
 93 95 0 0 0
SMALL
GASTEIGER

@<TRIPOS>ATOM
      1 H          29.8760   -5.1770   -3.4200 H       1  UNL1        0.0620
      2 H          31.7250   -6.9520   -5.1440 H       1  UNL1        0.0689
      3 H          32.1840   -7.1030   -2.5870 H       1  UNL1        0.0615
      4 H          29.8300   -5.7730   -1.1240 H       1  UNL1        0.0573
      5 H          26.7380   -5.1840   -6.1520 H       1  UNL1        0.0573
      6 H          27.4190   -7.7020   -4.5250 H       1  UNL1        0.0614
      7 H          26.2920   -4.9030   -3.7510 H       1  UNL1        0.0617
      8 H          27.2670   -7.3200   -2.1160 H       1  UNL1        0.0618
      9 H          26.0640   -4.5600   -1.3210 H       1  UNL1        0.0618
     10 H          27.3260   -6.8580    0.2870 H       1  UNL1        0.0617
     11 H          27.5740   -6.3050    2.6460 H       1  UNL1        0.0598
     12 H          26.0190   -4.1520    1.1110 H       1  UNL1        0.0615
     13 H          30.2810   -7.4400    4.9610 H       1  UNL1        0.0342
     14 H          22.0460   -0.5610    5.0480 H       1  UNL1        0.1186
     15 H          31.2890   -4.9930    6.4810 H       1  UNL1        0.0604
     16 H          31.1900   -6.8810    7.6380 H       1  UNL1        0.2098
     17 H          28.3970   -5.7670    5.8780 H       1  UNL1        0.0465
     18 H          30.0350   -3.4820    4.6140 H       1  UNL1        0.0607
     19 H          28.2100   -3.0720    3.1380 H       1  UNL1        0.0319
     20 H          23.5580   -3.5880    2.8360 H       1  UNL1        0.2101
     21 H          26.6410   -5.2760    4.5820 H       1  UNL1        0.0642
     22 H          21.1300   -2.6580    7.2750 H       1  UNL1        0.2100
     23 H          25.5700   -3.1250    5.5520 H       1  UNL1        0.0937
     24 H          24.2160   -1.5980    4.1100 H       1  UNL1        0.0660
     25 H          23.4780   -1.8030    6.4660 H       1  UNL1        0.0512
     26 H          21.7000   -4.1310    5.5520 H       1  UNL1        0.0635
     27 H          32.2520   -4.6660    0.2520 H       1  UNL1        0.2098
     28 H          24.2630   -4.2050    7.2530 H       1  UNL1        0.0620
     29 H          32.3140   -4.6250    2.9310 H       1  UNL1        0.2128
     30 H          22.6010   -5.9460    7.8780 H       1  UNL1        0.0255
     31 H          26.7560   -6.9980   -7.9100 H       1  UNL1        0.0343
     32 H          29.1120   -7.1830   -8.5910 H       1  UNL1        0.0734
     33 H          28.3120   -4.3390   -7.8600 H       1  UNL1        0.0265
     34 H          32.2930   -7.3440   -0.1070 H       1  UNL1        0.0332
     35 H          30.2720   -5.4240    1.1630 H       1  UNL1        0.0598
     36 H          32.2920   -7.1680    2.6740 H       1  UNL1        0.0342
     37 H          31.9560   -7.0100    5.2860 H       1  UNL1        0.0342
     38 H          21.2510   -1.8790    4.5900 H       1  UNL1        0.1186
     39 H          27.6850   -2.8700    4.7810 H       1  UNL1        0.0319
     40 H          24.0110   -6.6510    7.0590 H       1  UNL1        0.0255
     41 H          27.7170   -8.0290   -6.8590 H       1  UNL1        0.0343
     42 H          28.0650   -5.2010   -9.3720 H       1  UNL1        0.0265
     43 H          30.6270   -7.8530    0.2430 H       1  UNL1        0.0332
     44 H          30.5540   -7.5470    2.5650 H       1  UNL1        0.0342
     45 H          29.7080   -4.7660   -8.8510 H       1  UNL1        0.0265
     46 H          22.5040   -6.4590    6.1760 H       1  UNL1        0.0255
     47 H          27.5700   -3.3770    8.0940 H       1  UNL1        0.2951
     48 N          21.7160   -1.4590    5.4050 N.3     1  UNL1       -0.3229
     49 C          30.5080   -5.7180    6.2200 C.3     1  UNL1        0.0754
     50 O          30.3110   -6.5660    7.3570 O.3     1  UNL1       -0.3907
     51 C          29.1900   -5.0090    5.8890 C.3     1  UNL1        0.1084
     52 O          27.5950   -4.0150    7.3480 O.3     1  UNL1       -0.4803
     53 C          28.8890   -4.0020    6.9680 C.2     1  UNL1        0.3128
     54 O          29.6590   -3.1890    7.4520 O.2     1  UNL1       -0.2505
     55 C          29.2980   -4.2940    4.5390 C.3     1  UNL1        0.0799
     56 O          25.6230   -3.7720    3.5760 O.3     1  UNL1       -0.3413
     57 C          27.9890   -3.6350    4.0570 C.3     1  UNL1        0.0045
     58 O          22.9600   -3.0290    3.3740 O.3     1  UNL1       -0.3851
     59 C          26.8010   -4.5730    3.7570 C.3     1  UNL1        0.0826
     60 O          21.7090   -3.4220    7.4790 O.3     1  UNL1       -0.3876
     61 C          24.9020   -3.5490    4.7920 C.3     1  UNL1        0.1875
     62 O          24.3480   -4.7760    5.2640 O.3     1  UNL1       -0.3431
     63 C          23.7780   -2.5410    4.4570 C.3     1  UNL1        0.1234
     64 O          29.9680   -6.5720   -6.8750 O.3     1  UNL1       -0.4582
     65 C          22.8950   -2.3170    5.6900 C.3     1  UNL1        0.0646
     66 O          29.6680   -4.5010   -5.8880 O.2     1  UNL1       -0.2456
     67 C          22.4060   -3.6670    6.2530 C.3     1  UNL1        0.0987
     68 O          32.2900   -5.0710    1.1400 O.3     1  UNL1       -0.3913
     69 C          23.6010   -4.6080    6.4760 C.3     1  UNL1        0.0863
     70 O          32.0140   -4.8000    3.8480 O.3     1  UNL1       -0.3643
     71 C          23.1470   -5.9910    6.9300 C.3     1  UNL1       -0.0361
     72 O          29.7340   -5.1970    3.5240 O.3     1  UNL1       -0.3444
     73 C          27.0040   -5.3910    2.5010 C.2     1  UNL1       -0.0555
     74 C          26.5710   -5.0770    1.2680 C.2     1  UNL1       -0.0633
     75 C          26.8380   -5.9020    0.1100 C.2     1  UNL1       -0.0620
     76 C          26.5360   -5.5240   -1.1410 C.2     1  UNL1       -0.0618
     77 C          26.8480   -6.3320   -2.3010 C.2     1  UNL1       -0.0618
     78 C          26.6840   -5.9000   -3.5610 C.2     1  UNL1       -0.0621
     79 C          27.0660   -6.6890   -4.7110 C.2     1  UNL1       -0.0656
     80 C          27.0630   -6.2060   -5.9640 C.2     1  UNL1       -0.0805
     81 C          27.5530   -6.9850   -7.1570 C.3     1  UNL1        0.0026
     82 C          28.8580   -6.4640   -7.8010 C.3     1  UNL1        0.1040
     83 C          28.7290   -5.1160   -8.5060 C.3     1  UNL1       -0.0274
     84 C          30.1620   -5.6140   -5.9370 C.2     1  UNL1        0.3322
     85 C          30.9890   -6.2090   -4.8690 C.2     1  UNL1        0.0225
     86 C          30.6800   -5.8910   -3.6050 C.2     1  UNL1       -0.0553
     87 C          31.2950   -6.4930   -2.4450 C.2     1  UNL1       -0.0654
     88 C          30.7500   -6.3500   -1.2280 C.2     1  UNL1       -0.0816
     89 C          31.2660   -6.9870    0.0340 C.3     1  UNL1       -0.0081
     90 C          31.2020   -6.0010    1.2130 C.3     1  UNL1        0.0635
     91 C          31.2900   -6.7330    2.5610 C.3     1  UNL1        0.0276
     92 C          31.0060   -5.7940    3.7500 C.3     1  UNL1        0.1723
     93 C          30.9700   -6.5900    5.0530 C.3     1  UNL1        0.0282
@<TRIPOS>BOND
     1    42    83    1
     2    45    83    1
     3    32    82    1
     4    83    33    1
     5    83    82    1
     6    31    81    1
     7    82    81    1
     8    82    64    1
     9    81    41    1
    10    81    80    1
    11    64    84    1
    12     5    80    1
    13    80    79    2
    14    84    66    2
    15    84    85    1
    16     2    85    1
    17    85    86    2
    18    79     6    1
    19    79    78    1
    20     7    78    1
    21    86     1    1
    22    86    87    1
    23    78    77    2
    24     3    87    1
    25    87    88    2
    26    77     8    1
    27    77    76    1
    28     9    76    1
    29    88     4    1
    30    88    89    1
    31    76    75    2
    32    34    89    1
    33    89    43    1
    34    89    90    1
    35    75    10    1
    36    75    74    1
    37    27    68    1
    38    12    74    1
    39    68    90    1
    40    35    90    1
    41    90    91    1
    42    74    73    2
    43    73    11    1
    44    73    59    1
    45    91    44    1
    46    91    36    1
    47    91    92    1
    48    20    58    1
    49    29    70    1
    50    19    57    1
    51    58    63    1
    52    72    92    1
    53    72    55    1
    54    56    59    1
    55    56    61    1
    56    92    70    1
    57    92    93    1
    58    59    57    1
    59    59    21    1
    60    57    55    1
    61    57    39    1
    62    24    63    1
    63    63    61    1
    64    63    65    1
    65    55    18    1
    66    55    51    1
    67    38    48    1
    68    61    62    1
    69    61    23    1
    70    13    93    1
    71    14    48    1
    72    93    37    1
    73    93    49    1
    74    62    69    1
    75    48    65    1
    76    26    67    1
    77    65    67    1
    78    65    25    1
    79    17    51    1
    80    51    49    1
    81    51    53    1
    82    46    71    1
    83    49    15    1
    84    49    50    1
    85    67    69    1
    86    67    60    1
    87    69    71    1
    88    69    28    1
    89    71    40    1
    90    71    30    1
    91    53    52    1
    92    53    54    2
    93    22    60    1
    94    52    47    1
    95    50    16    1
