@<TRIPOS>MOLECULE
78.50995
 93 95 0 0 0
SMALL
GASTEIGER

@<TRIPOS>ATOM
      1 H          29.4130   -5.7700   -5.2030 H       1  UNL1        0.0620
      2 H          32.4230   -6.3990   -5.4960 H       1  UNL1        0.0689
      3 H          31.4940   -7.0180   -3.2480 H       1  UNL1        0.0615
      4 H          28.4530   -6.6010   -3.0910 H       1  UNL1        0.0573
      5 H          33.3070   -3.6630   -5.2150 H       1  UNL1        0.0573
      6 H          32.0810   -0.8550   -5.4750 H       1  UNL1        0.0614
      7 H          31.8640   -3.2120   -3.4720 H       1  UNL1        0.0617
      8 H          30.9780   -0.2850   -3.1660 H       1  UNL1        0.0618
      9 H          30.2980   -2.9750   -1.7900 H       1  UNL1        0.0618
     10 H          29.9140   -0.1020   -0.7610 H       1  UNL1        0.0617
     11 H          28.9220   -0.3490    1.6560 H       1  UNL1        0.0598
     12 H          28.8020   -2.8990   -0.0310 H       1  UNL1        0.0615
     13 H          29.6890   -7.0870    3.6840 H       1  UNL1        0.0342
     14 H          22.9200    0.2620    5.5800 H       1  UNL1        0.1186
     15 H          32.1610   -5.3360    3.2780 H       1  UNL1        0.0604
     16 H          32.3950   -6.9690    4.7470 H       1  UNL1        0.2098
     17 H          29.7120   -4.7560    5.0090 H       1  UNL1        0.0465
     18 H          30.4110   -3.3840    2.3420 H       1  UNL1        0.0607
     19 H          29.1910   -1.9510    4.0090 H       1  UNL1        0.0319
     20 H          25.3850    0.2920    2.3870 H       1  UNL1        0.2101
     21 H          27.3210   -2.9740    1.7980 H       1  UNL1        0.0642
     22 H          21.1520   -2.0170    4.2200 H       1  UNL1        0.2100
     23 H          25.9090   -2.6040    4.1210 H       1  UNL1        0.0937
     24 H          25.3110   -0.2670    4.7570 H       1  UNL1        0.0660
     25 H          23.5820   -1.9800    5.2160 H       1  UNL1        0.0512
     26 H          22.4970   -1.4220    2.4000 H       1  UNL1        0.0635
     27 H          27.7310   -4.9270   -0.1020 H       1  UNL1        0.2098
     28 H          23.9920   -3.8980    3.4520 H       1  UNL1        0.0620
     29 H          30.2930   -5.0630    0.2180 H       1  UNL1        0.2128
     30 H          22.2830   -4.4300    1.7250 H       1  UNL1        0.0255
     31 H          34.5490   -2.9520   -7.1830 H       1  UNL1        0.0343
     32 H          31.6470   -3.1280   -8.1550 H       1  UNL1        0.0734
     33 H          34.2470   -4.2730   -9.3050 H       1  UNL1        0.0265
     34 H          30.6090   -7.0970   -0.9780 H       1  UNL1        0.0332
     35 H          27.5710   -7.0700   -0.6240 H       1  UNL1        0.0598
     36 H          29.2900   -7.9730    1.1690 H       1  UNL1        0.0342
     37 H          31.1000   -7.4480    2.6940 H       1  UNL1        0.0342
     38 H          22.4670    0.4450    4.0500 H       1  UNL1        0.1186
     39 H          28.0030   -3.2160    4.2170 H       1  UNL1        0.0319
     40 H          23.9320   -4.6180    1.0920 H       1  UNL1        0.0255
     41 H          33.4410   -1.6220   -7.5260 H       1  UNL1        0.0343
     42 H          33.3850   -2.8440   -9.9230 H       1  UNL1        0.0265
     43 H          29.4670   -8.4090   -1.2780 H       1  UNL1        0.0332
     44 H          27.9080   -7.0030    1.6460 H       1  UNL1        0.0342
     45 H          32.6440   -4.4590  -10.0000 H       1  UNL1        0.0265
     46 H          22.9920   -3.2010    0.6500 H       1  UNL1        0.0255
     47 H          31.5790   -2.2730    6.2910 H       1  UNL1        0.2951
     48 N          22.4920   -0.2500    4.8070 N.3     1  UNL1       -0.3229
     49 C          31.2730   -5.6450    3.8430 C.3     1  UNL1        0.0754
     50 O          31.7280   -6.3150    5.0240 O.3     1  UNL1       -0.3907
     51 C          30.4310   -4.4350    4.2430 C.3     1  UNL1        0.1084
     52 O          30.8910   -2.9150    6.0160 O.3     1  UNL1       -0.4803
     53 C          31.3390   -3.3870    4.8350 C.2     1  UNL1        0.3128
     54 O          32.3520   -2.9290    4.3350 O.2     1  UNL1       -0.2505
     55 C          29.6930   -3.8440    3.0320 C.3     1  UNL1        0.0799
     56 O          26.8700   -1.2530    2.8650 O.3     1  UNL1       -0.3413
     57 C          28.6800   -2.7660    3.4810 C.3     1  UNL1        0.0045
     58 O          24.5740    0.2880    2.9360 O.3     1  UNL1       -0.3851
     59 C          27.8360   -2.1730    2.3410 C.3     1  UNL1        0.0826
     60 O          21.5940   -2.7250    3.7050 O.3     1  UNL1       -0.3876
     61 C          25.6700   -1.8780    3.3360 C.3     1  UNL1        0.1875
     62 O          24.9980   -2.5350    2.2620 O.3     1  UNL1       -0.3431
     63 C          24.7920   -0.7450    3.9190 C.3     1  UNL1        0.1234
     64 O          32.5410   -4.8730   -7.3680 O.3     1  UNL1       -0.4582
     65 C          23.4350   -1.3080    4.3610 C.3     1  UNL1        0.0646
     66 O          30.2350   -4.8520   -7.4510 O.2     1  UNL1       -0.2456
     67 C          22.7850   -2.1040    3.2110 C.3     1  UNL1        0.0987
     68 O          28.5150   -5.2570   -0.5830 O.3     1  UNL1       -0.3913
     69 C          23.7720   -3.1520    2.6760 C.3     1  UNL1        0.0863
     70 O          30.7800   -5.4410    0.9800 O.3     1  UNL1       -0.3643
     71 C          23.2030   -3.8940    1.4720 C.3     1  UNL1       -0.0361
     72 O          28.9640   -4.8670    2.3250 O.3     1  UNL1       -0.3444
     73 C          28.6650   -1.3660    1.3730 C.2     1  UNL1       -0.0555
     74 C          29.0670   -1.8720    0.2010 C.2     1  UNL1       -0.0633
     75 C          29.8300   -1.1830   -0.8110 C.2     1  UNL1       -0.0620
     76 C          30.3930   -1.8870   -1.8020 C.2     1  UNL1       -0.0618
     77 C          31.0890   -1.3420   -2.9450 C.2     1  UNL1       -0.0618
     78 C          31.7790   -2.1610   -3.7500 C.2     1  UNL1       -0.0621
     79 C          32.3470   -1.8090   -5.0300 C.2     1  UNL1       -0.0656
     80 C          33.0610   -2.7210   -5.7040 C.2     1  UNL1       -0.0805
     81 C          33.4960   -2.6470   -7.1420 C.3     1  UNL1        0.0026
     82 C          32.6360   -3.5860   -8.0230 C.3     1  UNL1        0.1040
     83 C          33.2660   -3.7940   -9.3920 C.3     1  UNL1       -0.0274
     84 C          31.2910   -5.2380   -6.9780 C.2     1  UNL1        0.3322
     85 C          31.4310   -6.0450   -5.7450 C.2     1  UNL1        0.0225
     86 C          30.3830   -6.1770   -4.9170 C.2     1  UNL1       -0.0553
     87 C          30.4980   -6.7450   -3.5920 C.2     1  UNL1       -0.0654
     88 C          29.4530   -6.8750   -2.7580 C.2     1  UNL1       -0.0816
     89 C          29.5920   -7.3200   -1.3230 C.3     1  UNL1       -0.0081
     90 C          28.5590   -6.6660   -0.3730 C.3     1  UNL1        0.0635
     91 C          28.8650   -6.9630    1.1070 C.3     1  UNL1        0.0276
     92 C          29.7760   -5.9450    1.8410 C.3     1  UNL1        0.1723
     93 C          30.4460   -6.6330    3.0300 C.3     1  UNL1        0.0282
@<TRIPOS>BOND
     1    45    83    1
     2    42    83    1
     3    83    33    1
     4    83    82    1
     5    32    82    1
     6    82    64    1
     7    82    81    1
     8    41    81    1
     9    66    84    2
    10    64    84    1
    11    31    81    1
    12    81    80    1
    13    84    85    1
    14    85     2    1
    15    85    86    2
    16    80     5    1
    17    80    79    2
    18     6    79    1
    19     1    86    1
    20    79    78    1
    21    86    87    1
    22    78     7    1
    23    78    77    2
    24    87     3    1
    25    87    88    2
    26     8    77    1
    27     4    88    1
    28    77    76    1
    29    88    89    1
    30    76     9    1
    31    76    75    2
    32    89    43    1
    33    89    34    1
    34    89    90    1
    35    75    10    1
    36    75    74    1
    37    35    90    1
    38    68    90    1
    39    68    27    1
    40    90    91    1
    41    12    74    1
    42    74    73    2
    43    29    70    1
    44    46    71    1
    45    70    92    1
    46    40    71    1
    47    91    36    1
    48    91    44    1
    49    91    92    1
    50    73    11    1
    51    73    59    1
    52    71    30    1
    53    71    69    1
    54    21    59    1
    55    92    72    1
    56    92    93    1
    57    62    69    1
    58    62    61    1
    59    72    55    1
    60    59    56    1
    61    59    57    1
    62    18    55    1
    63    20    58    1
    64    26    67    1
    65    69    67    1
    66    69    28    1
    67    37    93    1
    68    56    61    1
    69    58    63    1
    70    93    13    1
    71    93    49    1
    72    55    57    1
    73    55    51    1
    74    67    60    1
    75    67    65    1
    76    15    49    1
    77    61    63    1
    78    61    23    1
    79    57    19    1
    80    57    39    1
    81    60    22    1
    82    49    51    1
    83    49    50    1
    84    63    65    1
    85    63    24    1
    86    38    48    1
    87    51    53    1
    88    51    17    1
    89    54    53    2
    90    65    48    1
    91    65    25    1
    92    16    50    1
    93    48    14    1
    94    53    52    1
    95    52    47    1
