@<TRIPOS>MOLECULE
71.27596
 93 95 0 0 0
SMALL
GASTEIGER

@<TRIPOS>ATOM
      1 H          29.8460   -7.5970   -4.1370 H       1  UNL1        0.0620
      2 H          30.4640   -4.5800   -3.9910 H       1  UNL1        0.0689
      3 H          29.4960   -5.4500   -1.9100 H       1  UNL1        0.0615
      4 H          28.6190   -8.3760   -2.1970 H       1  UNL1        0.0573
      5 H          34.1660   -6.2270   -6.2020 H       1  UNL1        0.0573
      6 H          33.3260   -8.5310   -4.3460 H       1  UNL1        0.0614
      7 H          34.6540   -5.7630   -3.8140 H       1  UNL1        0.0617
      8 H          33.7060   -8.0760   -2.0220 H       1  UNL1        0.0618
      9 H          34.7570   -5.2160   -1.3830 H       1  UNL1        0.0618
     10 H          33.9010   -7.6260    0.3250 H       1  UNL1        0.0617
     11 H          34.0370   -7.2360    2.6830 H       1  UNL1        0.0598
     12 H          34.6460   -4.6950    1.0660 H       1  UNL1        0.0615
     13 H          30.6040   -3.5920    1.3550 H       1  UNL1        0.0342
     14 H          39.3230   -5.9150    7.6890 H       1  UNL1        0.1186
     15 H          29.5850   -3.1520    4.1960 H       1  UNL1        0.0604
     16 H          29.5250   -1.4350    2.7030 H       1  UNL1        0.2098
     17 H          32.4870   -3.1690    3.2370 H       1  UNL1        0.0465
     18 H          31.0240   -5.2850    4.9250 H       1  UNL1        0.0607
     19 H          33.0030   -6.6280    4.8330 H       1  UNL1        0.0319
     20 H          37.7200   -5.7800    4.0030 H       1  UNL1        0.2101
     21 H          34.4290   -4.2770    3.4600 H       1  UNL1        0.0642
     22 H          39.2300   -2.7270    7.9060 H       1  UNL1        0.2100
     23 H          35.3090   -4.8920    6.2650 H       1  UNL1        0.0937
     24 H          37.2370   -6.4750    6.2760 H       1  UNL1        0.0660
     25 H          37.3750   -4.5790    7.8610 H       1  UNL1        0.0512
     26 H          38.7620   -2.9940    5.6310 H       1  UNL1        0.0635
     27 H          27.2460   -4.9990   -0.3900 H       1  UNL1        0.2098
     28 H          35.9270   -2.6410    6.7740 H       1  UNL1        0.0620
     29 H          29.2320   -6.7290    3.5420 H       1  UNL1        0.2128
     30 H          36.9850   -0.5080    6.0700 H       1  UNL1        0.0255
     31 H          32.7390   -8.9520   -6.5830 H       1  UNL1        0.0343
     32 H          32.0010   -6.2960   -7.9430 H       1  UNL1        0.0734
     33 H          30.5820   -9.0070   -7.8700 H       1  UNL1        0.0265
     34 H          28.3350   -8.2930    0.1790 H       1  UNL1        0.0332
     35 H          27.7130   -6.2980    1.4780 H       1  UNL1        0.0598
     36 H          30.5580   -5.8900    0.4080 H       1  UNL1        0.0342
     37 H          28.9360   -3.5990    1.9230 H       1  UNL1        0.0342
     38 H          39.8920   -5.0400    6.4680 H       1  UNL1        0.1186
     39 H          33.2990   -5.1200    5.6420 H       1  UNL1        0.0319
     40 H          35.6870   -0.9840    4.9560 H       1  UNL1        0.0255
     41 H          33.6720   -8.1230   -7.8280 H       1  UNL1        0.0343
     42 H          31.4780   -8.3460   -9.2590 H       1  UNL1        0.0265
     43 H          27.0190   -7.3610   -0.5120 H       1  UNL1        0.0332
     44 H          30.1110   -7.2600    1.4110 H       1  UNL1        0.0342
     45 H          30.0000   -7.5540   -8.6680 H       1  UNL1        0.0265
     46 H          37.3620   -1.2180    4.4820 H       1  UNL1        0.0255
     47 H          33.0280   -1.5770    6.1530 H       1  UNL1        0.2951
     48 N          39.3600   -4.9540    7.3440 N.3     1  UNL1       -0.3229
     49 C          30.3530   -3.0580    3.4190 C.3     1  UNL1        0.0754
     50 O          30.4050   -1.6780    3.0420 O.3     1  UNL1       -0.3907
     51 C          31.7190   -3.4880    3.9520 C.3     1  UNL1        0.1084
     52 O          33.0360   -2.0110    5.2740 O.3     1  UNL1       -0.4803
     53 C          31.9510   -2.8060    5.2740 C.2     1  UNL1        0.3128
     54 O          31.2940   -2.9530    6.2930 O.2     1  UNL1       -0.2505
     55 C          31.7520   -5.0060    4.1500 C.3     1  UNL1        0.0799
     56 O          35.5350   -5.7630    4.3960 O.3     1  UNL1       -0.3413
     57 C          33.1070   -5.5480    4.6530 C.3     1  UNL1        0.0045
     58 O          38.2850   -5.5710    4.7760 O.3     1  UNL1       -0.3851
     59 C          34.3330   -5.3300    3.7430 C.3     1  UNL1        0.0826
     60 O          38.4680   -2.2450    7.5200 O.3     1  UNL1       -0.3876
     61 C          36.0110   -4.8870    5.4230 C.3     1  UNL1        0.1875
     62 O          36.1700   -3.5580    4.9340 O.3     1  UNL1       -0.3431
     63 C          37.3720   -5.4590    5.8870 C.3     1  UNL1        0.1234
     64 O          30.9120   -6.9500   -6.2550 O.3     1  UNL1       -0.4582
     65 C          37.9880   -4.5410    6.9510 C.3     1  UNL1        0.0646
     66 O          31.5010   -4.7250   -6.3100 O.2     1  UNL1       -0.2456
     67 C          38.0320   -3.0840    6.4460 C.3     1  UNL1        0.0987
     68 O          28.1200   -4.9310    0.0350 O.3     1  UNL1       -0.3913
     69 C          36.6450   -2.6570    5.9430 C.3     1  UNL1        0.0863
     70 O          29.1310   -5.7670    3.4500 O.3     1  UNL1       -0.3643
     71 C          36.6770   -1.2590    5.3360 C.3     1  UNL1       -0.0361
     72 O          31.3820   -5.6950    2.9470 O.3     1  UNL1       -0.3444
     73 C          34.2570   -6.1850    2.5090 C.2     1  UNL1       -0.0555
     74 C          34.4140   -5.7410    1.2520 C.2     1  UNL1       -0.0633
     75 C          34.2390   -6.6130    0.1140 C.2     1  UNL1       -0.0620
     76 C          34.4230   -6.2260   -1.1560 C.2     1  UNL1       -0.0618
     77 C          34.1230   -7.1010   -2.2670 C.2     1  UNL1       -0.0618
     78 C          34.2580   -6.7410   -3.5520 C.2     1  UNL1       -0.0621
     79 C          33.7820   -7.5820   -4.6250 C.2     1  UNL1       -0.0656
     80 C          33.7530   -7.1900   -5.9080 C.2     1  UNL1       -0.0805
     81 C          33.0110   -7.9610   -6.9690 C.3     1  UNL1        0.0026
     82 C          31.7320   -7.2190   -7.4150 C.3     1  UNL1        0.1040
     83 C          30.9080   -8.0840   -8.3620 C.3     1  UNL1       -0.0274
     84 C          30.9840   -5.6880   -5.7620 C.2     1  UNL1        0.3322
     85 C          30.4070   -5.5810   -4.4060 C.2     1  UNL1        0.0225
     86 C          29.8890   -6.6000   -3.7050 C.2     1  UNL1       -0.0553
     87 C          29.3720   -6.4310   -2.3630 C.2     1  UNL1       -0.0654
     88 C          28.7420   -7.4130   -1.7010 C.2     1  UNL1       -0.0816
     89 C          28.1030   -7.3520   -0.3350 C.3     1  UNL1       -0.0081
     90 C          28.4090   -6.1900    0.6380 C.3     1  UNL1        0.0635
     91 C          29.8480   -6.2200    1.1770 C.3     1  UNL1        0.0276
     92 C          30.0740   -5.3810    2.4580 C.3     1  UNL1        0.1723
     93 C          29.9590   -3.8800    2.1950 C.3     1  UNL1        0.0282
@<TRIPOS>BOND
     1    42    83    1
     2    45    83    1
     3    83    33    1
     4    83    82    1
     5    32    82    1
     6    41    81    1
     7    82    81    1
     8    82    64    1
     9    81    31    1
    10    81    80    1
    11    66    84    2
    12    64    84    1
    13     5    80    1
    14    80    79    2
    15    84    85    1
    16    79     6    1
    17    79    78    1
    18    85     2    1
    19    85    86    2
    20     1    86    1
    21     7    78    1
    22    86    87    1
    23    78    77    2
    24    87     3    1
    25    87    88    2
    26    77     8    1
    27    77    76    1
    28     4    88    1
    29    88    89    1
    30     9    76    1
    31    76    75    2
    32    43    89    1
    33    27    68    1
    34    89    34    1
    35    89    90    1
    36    68    90    1
    37    75    10    1
    38    75    74    1
    39    36    91    1
    40    90    91    1
    41    90    35    1
    42    12    74    1
    43    91    44    1
    44    91    92    1
    45    74    73    2
    46    13    93    1
    47    37    93    1
    48    93    92    1
    49    93    49    1
    50    92    72    1
    51    92    70    1
    52    73    11    1
    53    73    59    1
    54    16    50    1
    55    72    55    1
    56    50    49    1
    57    17    51    1
    58    49    51    1
    59    49    15    1
    60    70    29    1
    61    21    59    1
    62    59    56    1
    63    59    57    1
    64    51    55    1
    65    51    53    1
    66    20    58    1
    67    55    57    1
    68    55    18    1
    69    56    61    1
    70    46    71    1
    71    57    19    1
    72    57    39    1
    73    58    63    1
    74    62    61    1
    75    62    69    1
    76    40    71    1
    77    52    53    1
    78    52    47    1
    79    53    54    2
    80    71    69    1
    81    71    30    1
    82    61    63    1
    83    61    23    1
    84    26    67    1
    85    63    24    1
    86    63    65    1
    87    69    67    1
    88    69    28    1
    89    67    65    1
    90    67    60    1
    91    38    48    1
    92    65    48    1
    93    65    25    1
    94    48    14    1
    95    60    22    1
