@<TRIPOS>MOLECULE
62.55038
 93 95 0 0 0
SMALL
GASTEIGER

@<TRIPOS>ATOM
      1 H          28.9660   -5.2690   -4.4760 H       1  UNL1        0.0620
      2 H          31.7330   -5.7760   -5.7490 H       1  UNL1        0.0689
      3 H          31.5650   -6.5500   -3.3360 H       1  UNL1        0.0615
      4 H          28.7440   -6.0330   -2.2200 H       1  UNL1        0.0573
      5 H          25.7760   -2.9250   -6.2440 H       1  UNL1        0.0573
      6 H          26.2350   -5.8390   -5.3800 H       1  UNL1        0.0614
      7 H          25.2010   -3.3160   -3.8740 H       1  UNL1        0.0617
      8 H          26.0260   -6.1390   -2.9670 H       1  UNL1        0.0618
      9 H          24.9600   -3.6350   -1.4530 H       1  UNL1        0.0618
     10 H          26.1640   -6.3070   -0.5160 H       1  UNL1        0.0617
     11 H          26.5960   -6.2960    1.9000 H       1  UNL1        0.0598
     12 H          25.0180   -3.8290    0.9840 H       1  UNL1        0.0615
     13 H          29.5040   -7.7510    4.0100 H       1  UNL1        0.0342
     14 H          20.9910   -1.4440    5.5280 H       1  UNL1        0.1186
     15 H          30.7740   -5.4440    5.5540 H       1  UNL1        0.0604
     16 H          30.7570   -7.4160    6.5750 H       1  UNL1        0.2098
     17 H          27.8020   -6.0970    5.2880 H       1  UNL1        0.0465
     18 H          29.3170   -3.7760    3.9450 H       1  UNL1        0.0607
     19 H          27.3310   -3.2040    2.8060 H       1  UNL1        0.0319
     20 H          22.5960   -4.4110    3.3380 H       1  UNL1        0.2101
     21 H          25.9650   -5.6320    4.0890 H       1  UNL1        0.0642
     22 H          21.2340   -3.2090    8.1820 H       1  UNL1        0.2100
     23 H          25.0520   -3.0950    5.3170 H       1  UNL1        0.0937
     24 H          23.0530   -2.1630    4.1490 H       1  UNL1        0.0660
     25 H          22.9990   -2.0660    6.6190 H       1  UNL1        0.0512
     26 H          21.6900   -4.8400    6.5700 H       1  UNL1        0.0635
     27 H          31.0020   -4.6190   -0.6330 H       1  UNL1        0.2098
     28 H          24.5370   -4.0540    7.4260 H       1  UNL1        0.0620
     29 H          31.3440   -4.8020    1.9710 H       1  UNL1        0.2128
     30 H          23.6020   -5.9340    8.7490 H       1  UNL1        0.0255
     31 H          26.0020   -3.9900   -8.4720 H       1  UNL1        0.0343
     32 H          28.4390   -4.4900   -8.7910 H       1  UNL1        0.0734
     33 H          28.0930   -2.0700   -6.9210 H       1  UNL1        0.0265
     34 H          31.3000   -7.3460   -1.0610 H       1  UNL1        0.0332
     35 H          29.1330   -5.6130    0.2620 H       1  UNL1        0.0598
     36 H          31.2960   -7.3500    1.5720 H       1  UNL1        0.0342
     37 H          31.2210   -7.3880    4.1570 H       1  UNL1        0.0342
     38 H          20.4640   -2.9610    5.4970 H       1  UNL1        0.1186
     39 H          27.0050   -3.2030    4.5090 H       1  UNL1        0.0319
     40 H          24.8760   -6.4870    7.6420 H       1  UNL1        0.0255
     41 H          26.5130   -5.5100   -7.7470 H       1  UNL1        0.0343
     42 H          27.7050   -2.0600   -8.6600 H       1  UNL1        0.0265
     43 H          29.6480   -7.9310   -0.8110 H       1  UNL1        0.0332
     44 H          29.5530   -7.7090    1.5840 H       1  UNL1        0.0342
     45 H          29.3680   -2.3080   -8.0990 H       1  UNL1        0.0265
     46 H          23.1910   -6.7900    7.2430 H       1  UNL1        0.0255
     47 H          27.4480   -3.9050    7.8120 H       1  UNL1        0.2951
     48 N          20.9990   -2.3040    6.0800 N.3     1  UNL1       -0.3229
     49 C          29.9430   -6.1300    5.3450 C.3     1  UNL1        0.0754
     50 O          29.8640   -7.0500    6.4410 O.3     1  UNL1       -0.3907
     51 C          28.6200   -5.3680    5.2300 C.3     1  UNL1        0.1084
     52 O          27.3400   -4.5080    7.0460 O.3     1  UNL1       -0.4803
     53 C          28.5160   -4.4160    6.3940 C.2     1  UNL1        0.3128
     54 O          29.3420   -3.5870    6.7380 O.2     1  UNL1       -0.2505
     55 C          28.5640   -4.5770    3.9180 C.3     1  UNL1        0.0799
     56 O          24.7700   -4.0500    3.4960 O.3     1  UNL1       -0.3413
     57 C          27.2110   -3.8750    3.6690 C.3     1  UNL1        0.0045
     58 O          22.0410   -3.9280    3.9850 O.3     1  UNL1       -0.3851
     59 C          25.9970   -4.7880    3.3930 C.3     1  UNL1        0.0826
     60 O          22.0180   -3.7860    8.3020 O.3     1  UNL1       -0.3876
     61 C          24.3450   -3.7790    4.8360 C.3     1  UNL1        0.1875
     62 O          24.2400   -4.9800    5.5960 O.3     1  UNL1       -0.3431
     63 C          22.9620   -3.0950    4.7190 C.3     1  UNL1        0.1234
     64 O          28.8170   -4.6130   -6.7420 O.3     1  UNL1       -0.4582
     65 C          22.3890   -2.8280    6.1170 C.3     1  UNL1        0.0646
     66 O          30.7920   -4.6980   -7.9080 O.2     1  UNL1       -0.2456
     67 C          22.4140   -4.1160    6.9670 C.3     1  UNL1        0.0987
     68 O          31.1180   -5.0830    0.2180 O.3     1  UNL1       -0.3913
     69 C          23.8210   -4.7320    6.9440 C.3     1  UNL1        0.0863
     70 O          31.1640   -5.0620    2.9010 O.3     1  UNL1       -0.3643
     71 C          23.8690   -6.0580    7.6950 C.3     1  UNL1       -0.0361
     72 O          28.8550   -5.4160    2.7960 O.3     1  UNL1       -0.3444
     73 C          26.0460   -5.3620    1.9920 C.2     1  UNL1       -0.0555
     74 C          25.5360   -4.7820    0.8940 C.2     1  UNL1       -0.0633
     75 C          25.7080   -5.3230   -0.4350 C.2     1  UNL1       -0.0620
     76 C          25.3880   -4.6320   -1.5400 C.2     1  UNL1       -0.0618
     77 C          25.6570   -5.1190   -2.8750 C.2     1  UNL1       -0.0618
     78 C          25.5390   -4.3460   -3.9660 C.2     1  UNL1       -0.0621
     79 C          25.9340   -4.7980   -5.2790 C.2     1  UNL1       -0.0656
     80 C          26.0390   -3.9760   -6.3360 C.2     1  UNL1       -0.0805
     81 C          26.6060   -4.4190   -7.6640 C.3     1  UNL1        0.0026
     82 C          28.0920   -4.0430   -7.8510 C.3     1  UNL1        0.1040
     83 C          28.3180   -2.5340   -7.8880 C.3     1  UNL1       -0.0274
     84 C          30.1310   -4.8790   -6.8990 C.2     1  UNL1        0.3322
     85 C          30.6990   -5.4620   -5.6610 C.2     1  UNL1        0.0225
     86 C          30.0010   -5.6040   -4.5230 C.2     1  UNL1       -0.0553
     87 C          30.5330   -6.2050   -3.3220 C.2     1  UNL1       -0.0654
     88 C          29.7820   -6.3660   -2.2210 C.2     1  UNL1       -0.0816
     89 C          30.2550   -7.0290   -0.9540 C.3     1  UNL1       -0.0081
     90 C          30.1130   -6.1040    0.2670 C.3     1  UNL1        0.0635
     91 C          30.2950   -6.9000    1.5690 C.3     1  UNL1        0.0276
     92 C          30.1360   -6.0380    2.8360 C.3     1  UNL1        0.1723
     93 C          30.2280   -6.9270    4.0760 C.3     1  UNL1        0.0282
@<TRIPOS>BOND
     1    32    82    1
     2    42    83    1
     3    31    81    1
     4    45    83    1
     5    66    84    2
     6    83    82    1
     7    83    33    1
     8    82    81    1
     9    82    64    1
    10    41    81    1
    11    81    80    1
    12    84    64    1
    13    84    85    1
    14    80     5    1
    15    80    79    2
    16     2    85    1
    17    85    86    2
    18     6    79    1
    19    79    78    1
    20    86     1    1
    21    86    87    1
    22    78     7    1
    23    78    77    2
    24     3    87    1
    25    87    88    2
    26     8    77    1
    27    77    76    1
    28    88     4    1
    29    88    89    1
    30    76     9    1
    31    76    75    2
    32    34    89    1
    33    89    43    1
    34    89    90    1
    35    27    68    1
    36    10    75    1
    37    75    74    1
    38    68    90    1
    39    35    90    1
    40    90    91    1
    41    74    12    1
    42    74    73    2
    43    91    36    1
    44    91    44    1
    45    91    92    1
    46    11    73    1
    47    29    70    1
    48    73    59    1
    49    72    92    1
    50    72    55    1
    51    19    57    1
    52    92    70    1
    53    92    93    1
    54    20    58    1
    55    59    56    1
    56    59    57    1
    57    59    21    1
    58    56    61    1
    59    57    55    1
    60    57    39    1
    61    55    18    1
    62    55    51    1
    63    58    63    1
    64    13    93    1
    65    93    37    1
    66    93    49    1
    67    24    63    1
    68    63    61    1
    69    63    65    1
    70    61    23    1
    71    61    62    1
    72    51    17    1
    73    51    49    1
    74    51    53    1
    75    49    15    1
    76    49    50    1
    77    38    48    1
    78    14    48    1
    79    62    69    1
    80    48    65    1
    81    65    25    1
    82    65    67    1
    83    53    54    2
    84    53    52    1
    85    50    16    1
    86    26    67    1
    87    69    67    1
    88    69    28    1
    89    69    71    1
    90    67    60    1
    91    52    47    1
    92    46    71    1
    93    40    71    1
    94    71    30    1
    95    22    60    1
