@<TRIPOS>MOLECULE
60.97233
 93 95 0 0 0
SMALL
GASTEIGER

@<TRIPOS>ATOM
      1 H          32.2310    3.0540    2.9280 H       1  UNL1        0.0620
      2 H          31.4780    5.2040    5.0150 H       1  UNL1        0.0689
      3 H          31.4230    2.8950    5.9370 H       1  UNL1        0.0615
      4 H          31.7820    0.7470    3.7640 H       1  UNL1        0.0573
      5 H          28.2580    6.4020    1.6070 H       1  UNL1        0.0573
      6 H          30.2540    4.2150    0.7830 H       1  UNL1        0.0614
      7 H          27.3520    4.0610    1.9050 H       1  UNL1        0.0617
      8 H          29.5590    1.9990    1.3170 H       1  UNL1        0.0618
      9 H          26.6230    1.6930    2.3110 H       1  UNL1        0.0618
     10 H          28.9420   -0.2670    1.8140 H       1  UNL1        0.0617
     11 H          28.3810   -2.5540    2.2590 H       1  UNL1        0.0598
     12 H          25.9790   -0.6890    2.6740 H       1  UNL1        0.0615
     13 H          28.7830   -3.8350    7.8920 H       1  UNL1        0.0342
     14 H          20.2210   -3.9530    3.7800 H       1  UNL1        0.1186
     15 H          25.8960   -2.9250    8.1880 H       1  UNL1        0.0604
     16 H          26.6350   -4.2750    9.7660 H       1  UNL1        0.2098
     17 H          26.8400   -5.2640    6.4840 H       1  UNL1        0.0465
     18 H          26.0320   -2.5930    5.2220 H       1  UNL1        0.0607
     19 H          26.2930   -5.1290    4.1060 H       1  UNL1        0.0319
     20 H          23.3680   -1.7750    2.4610 H       1  UNL1        0.2101
     21 H          26.5460   -4.1290    1.9250 H       1  UNL1        0.0642
     22 H          20.0420   -5.3840    0.9480 H       1  UNL1        0.2100
     23 H          24.3980   -4.9930    2.9020 H       1  UNL1        0.0937
     24 H          22.7540   -3.5170    4.0710 H       1  UNL1        0.0660
     25 H          21.7950   -5.4770    2.8940 H       1  UNL1        0.0512
     26 H          21.5550   -3.6720    0.4240 H       1  UNL1        0.0635
     27 H          28.9890    1.1590    4.9520 H       1  UNL1        0.2098
     28 H          23.4730   -6.0240    0.9300 H       1  UNL1        0.0620
     29 H          27.5270   -0.2850    6.4190 H       1  UNL1        0.2128
     30 H          22.7680   -5.8110   -1.4460 H       1  UNL1        0.0255
     31 H          29.8900    7.6390    0.1150 H       1  UNL1        0.0343
     32 H          31.9390    8.0200    1.6880 H       1  UNL1        0.0734
     33 H          29.1660    8.4250    2.9260 H       1  UNL1        0.0265
     34 H          31.2980    0.7020    6.8160 H       1  UNL1        0.0332
     35 H          29.7660   -0.9420    4.7110 H       1  UNL1        0.0598
     36 H          29.6820   -0.8970    7.7770 H       1  UNL1        0.0342
     37 H          28.1520   -2.5370    8.9020 H       1  UNL1        0.0342
     38 H          20.2600   -3.0400    2.4570 H       1  UNL1        0.1186
     39 H          27.9350   -4.5530    3.9210 H       1  UNL1        0.0319
     40 H          24.4660   -5.3390   -1.2240 H       1  UNL1        0.0255
     41 H          31.0460    6.3420    0.2640 H       1  UNL1        0.0343
     42 H          29.9260    9.5070    1.7340 H       1  UNL1        0.0265
     43 H          32.0100   -0.5940    5.8560 H       1  UNL1        0.0332
     44 H          30.3460   -2.2160    6.7880 H       1  UNL1        0.0342
     45 H          30.6370    9.2860    3.3470 H       1  UNL1        0.0265
     46 H          23.2420   -4.0950   -1.4300 H       1  UNL1        0.0255
     47 H          23.1200   -4.1650    6.9420 H       1  UNL1        0.2951
     48 N          20.3070   -4.0200    2.7650 N.3     1  UNL1       -0.3229
     49 C          26.6370   -3.6800    7.9020 C.3     1  UNL1        0.0754
     50 O          26.5920   -4.7130    8.8970 O.3     1  UNL1       -0.3907
     51 C          26.3240   -4.2950    6.5330 C.3     1  UNL1        0.1084
     52 O          24.0220   -3.8470    7.1500 O.3     1  UNL1       -0.4803
     53 C          24.8400   -4.5840    6.3790 C.2     1  UNL1        0.3128
     54 O          24.3480   -5.3570    5.5670 O.2     1  UNL1       -0.2505
     55 C          26.7630   -3.4000    5.3560 C.3     1  UNL1        0.0799
     56 O          25.0990   -3.0260    2.9240 O.3     1  UNL1       -0.3413
     57 C          26.8970   -4.2190    4.0480 C.3     1  UNL1        0.0045
     58 O          22.4890   -2.2020    2.5350 O.3     1  UNL1       -0.3851
     59 C          26.4570   -3.4540    2.7870 C.3     1  UNL1        0.0826
     60 O          20.8630   -5.6040    0.4600 O.3     1  UNL1       -0.3876
     61 C          24.1570   -4.0110    2.4790 C.3     1  UNL1        0.1875
     62 O          24.1870   -4.0840    1.0540 O.3     1  UNL1       -0.3431
     63 C          22.7680   -3.5480    2.9760 C.3     1  UNL1        0.1234
     64 O          31.1840    6.7370    3.1360 O.3     1  UNL1       -0.4582
     65 C          21.6800   -4.4860    2.4380 C.3     1  UNL1        0.0646
     66 O          32.7210    5.4680    1.9770 O.2     1  UNL1       -0.2456
     67 C          21.8060   -4.6250    0.9070 C.3     1  UNL1        0.0987
     68 O          28.8470    0.5890    5.7340 O.3     1  UNL1       -0.3913
     69 C          23.2410   -5.0270    0.5330 C.3     1  UNL1        0.0863
     70 O          27.1710   -1.0770    6.8790 O.3     1  UNL1       -0.3643
     71 C          23.4310   -5.0760   -0.9800 C.3     1  UNL1       -0.0361
     72 O          28.0550   -2.8050    5.5660 O.3     1  UNL1       -0.3444
     73 C          27.3530   -2.2790    2.4870 C.2     1  UNL1       -0.0555
     74 C          27.0020   -0.9830    2.4490 C.2     1  UNL1       -0.0633
     75 C          27.9390    0.0550    2.0870 C.2     1  UNL1       -0.0620
     76 C          27.6240    1.3580    2.0460 C.2     1  UNL1       -0.0618
     77 C          28.5790    2.3590    1.6270 C.2     1  UNL1       -0.0618
     78 C          28.3200    3.6750    1.5930 C.2     1  UNL1       -0.0621
     79 C          29.3160    4.6260    1.1570 C.2     1  UNL1       -0.0656
     80 C          29.1730    5.9590    1.2240 C.2     1  UNL1       -0.0805
     81 C          30.2850    6.9000    0.8230 C.3     1  UNL1        0.0026
     82 C          30.9710    7.6160    2.0100 C.3     1  UNL1        0.1040
     83 C          30.1230    8.7760    2.5240 C.3     1  UNL1       -0.0274
     84 C          32.0150    5.6840    2.9460 C.2     1  UNL1        0.3322
     85 C          31.8130    4.7660    4.0830 C.2     1  UNL1        0.0225
     86 C          31.9370    3.4440    3.9010 C.2     1  UNL1       -0.0553
     87 C          31.6400    2.4940    4.9470 C.2     1  UNL1       -0.0654
     88 C          31.5850    1.1680    4.7480 C.2     1  UNL1       -0.0816
     89 C          31.2450    0.1920    5.8460 C.3     1  UNL1       -0.0081
     90 C          29.8490   -0.4370    5.6800 C.3     1  UNL1        0.0635
     91 C          29.5800   -1.4310    6.8230 C.3     1  UNL1        0.0276
     92 C          28.1800   -2.0700    6.7770 C.3     1  UNL1        0.1723
     93 C          28.0210   -3.0450    7.9390 C.3     1  UNL1        0.0282
@<TRIPOS>BOND
     1    30    71    1
     2    46    71    1
     3    40    71    1
     4    71    69    1
     5    31    81    1
     6    41    81    1
     7    26    67    1
     8    60    67    1
     9    60    22    1
    10    69    67    1
    11    69    28    1
    12    69    62    1
    13     6    79    1
    14    81    80    1
    15    81    82    1
    16    67    65    1
    17    62    61    1
    18    79    80    2
    19    79    78    1
    20    80     5    1
    21     8    77    1
    22    78    77    2
    23    78     7    1
    24    77    76    1
    25    32    82    1
    26    42    83    1
    27    10    75    1
    28    21    59    1
    29    66    84    2
    30    82    83    1
    31    82    64    1
    32    76    75    2
    33    76     9    1
    34    75    74    1
    35    11    73    1
    36    65    48    1
    37    65    25    1
    38    65    63    1
    39    74    73    2
    40    74    12    1
    41    38    48    1
    42    20    58    1
    43    61    23    1
    44    61    56    1
    45    61    63    1
    46    73    59    1
    47    83    33    1
    48    83    45    1
    49    58    63    1
    50    48    14    1
    51    59    56    1
    52    59    57    1
    53     1    86    1
    54    84    64    1
    55    84    85    1
    56    63    24    1
    57     4    88    1
    58    86    85    2
    59    86    87    1
    60    39    57    1
    61    57    19    1
    62    57    55    1
    63    85     2    1
    64    35    90    1
    65    88    87    2
    66    88    89    1
    67    87     3    1
    68    27    68    1
    69    18    55    1
    70    55    72    1
    71    55    51    1
    72    72    92    1
    73    54    53    2
    74    90    68    1
    75    90    89    1
    76    90    91    1
    77    89    43    1
    78    89    34    1
    79    53    51    1
    80    53    52    1
    81    29    70    1
    82    17    51    1
    83    51    49    1
    84    92    91    1
    85    92    70    1
    86    92    93    1
    87    44    91    1
    88    91    36    1
    89    47    52    1
    90    13    93    1
    91    49    93    1
    92    49    15    1
    93    49    50    1
    94    93    37    1
    95    50    16    1
