@<TRIPOS>MOLECULE
122.49186
 113 117 0 0 0
SMALL
GASTEIGER

@<TRIPOS>ATOM
      1 H         -29.6090   -3.9990   47.1130 H       1  UNL1        0.0666
      2 O         -29.9290   -2.3890   49.9960 O.2     1  UNL1       -0.2708
      3 C         -29.7450   -3.3130   49.2150 C.2     1  UNL1        0.2372
      4 C         -29.9090   -3.1740   47.7470 C.2     1  UNL1       -0.0038
      5 C         -30.4020   -2.0380   47.2290 C.2     1  UNL1       -0.0789
      6 C         -30.5810   -1.7950   45.7560 C.3     1  UNL1       -0.0317
      7 C         -29.8030   -0.5610   45.2510 C.3     1  UNL1       -0.0407
      8 C         -28.2910   -0.7270   45.4610 C.3     1  UNL1       -0.0621
      9 C         -30.0740   -0.2850   43.7580 C.3     1  UNL1       -0.0530
     10 C         -31.5180    0.0870   43.4530 C.3     1  UNL1       -0.0650
     11 H         -30.7080   -1.2290   47.8890 H       1  UNL1        0.0574
     12 H         -31.6540   -1.6550   45.5870 H       1  UNL1        0.0310
     13 H         -30.2840   -2.6800   45.1790 H       1  UNL1        0.0310
     14 H         -30.1230    0.3190   45.8260 H       1  UNL1        0.0301
     15 H         -27.7480    0.1440   45.0800 H       1  UNL1        0.0233
     16 H         -28.0410   -0.8230   46.5230 H       1  UNL1        0.0233
     17 H         -27.9150   -1.6150   44.9410 H       1  UNL1        0.0233
     18 H         -29.7920   -1.1580   43.1560 H       1  UNL1        0.0265
     19 H         -29.4360    0.5440   43.4260 H       1  UNL1        0.0265
     20 H         -31.8500    0.9210   44.0790 H       1  UNL1        0.0230
     21 H         -31.6120    0.3920   42.4050 H       1  UNL1        0.0230
     22 H         -32.1950   -0.7570   43.6090 H       1  UNL1        0.0230
     23 C         -27.5180   -4.4550   51.1530 C.2     1  UNL1        0.2344
     24 N         -29.3290   -4.5570   49.6010 N.am    1  UNL1       -0.3002
     25 O         -26.6050   -5.2030   50.8120 O.2     1  UNL1       -0.2737
     26 F         -30.9270   -6.2440   55.9140 F       1  UNL1       -0.2054
     27 F         -26.7740   -8.2870   55.0560 F       1  UNL1       -0.2054
     28 C         -29.0010   -4.8370   51.0000 C.3     1  UNL1        0.1036
     29 C         -29.2390   -6.3160   51.3240 C.3     1  UNL1       -0.0005
     30 C         -29.1000   -6.6390   52.7920 C.ar    1  UNL1       -0.0397
     31 C         -28.8570   -7.2920   55.5190 C.ar    1  UNL1        0.0088
     32 C         -30.1010   -6.2770   53.7050 C.ar    1  UNL1       -0.0230
     33 C         -27.9670   -7.3150   53.2670 C.ar    1  UNL1       -0.0230
     34 C         -29.9680   -6.6050   55.0530 C.ar    1  UNL1        0.1264
     35 C         -27.8610   -7.6390   54.6180 C.ar    1  UNL1        0.1264
     36 H         -29.0590   -5.2420   48.9060 H       1  UNL1        0.1498
     37 H         -29.6130   -4.1990   51.6490 H       1  UNL1        0.0598
     38 H         -30.2510   -6.6050   51.0070 H       1  UNL1        0.0336
     39 H         -28.5650   -6.9550   50.7380 H       1  UNL1        0.0336
     40 H         -28.7640   -7.5470   56.5680 H       1  UNL1        0.0675
     41 H         -30.9950   -5.7480   53.3810 H       1  UNL1        0.0649
     42 H         -27.1590   -7.6000   52.5950 H       1  UNL1        0.0649
     43 N         -27.3110   -3.1510   51.5510 N.am    1  UNL1       -0.2995
     44 C         -25.9750   -2.5610   51.5850 C.3     1  UNL1        0.1366
     45 C         -25.1380   -2.9900   52.8120 C.2     1  UNL1        0.2402
     46 O         -23.9130   -3.1130   52.6610 O.2     1  UNL1       -0.2734
     47 C         -25.9360   -1.0140   51.4630 C.3     1  UNL1        0.1270
     48 O         -26.9830   -0.4850   50.6040 O.3     1  UNL1       -0.4580
     49 C         -24.6240   -0.5290   50.8430 C.3     1  UNL1       -0.0254
     50 H         -28.1140   -2.5560   51.7360 H       1  UNL1        0.1496
     51 H         -25.4610   -2.9800   50.7080 H       1  UNL1        0.0632
     52 H         -26.0060   -0.5440   52.4510 H       1  UNL1        0.0755
     53 H         -24.4910   -0.9400   49.8360 H       1  UNL1        0.0266
     54 H         -24.6370    0.5610   50.7350 H       1  UNL1        0.0266
     55 H         -23.7580   -0.8010   51.4520 H       1  UNL1        0.0266
     56 N         -25.6780   -3.1020   54.0780 N.am    1  UNL1       -0.2883
     57 C         -27.0540   -2.9110   54.5860 C.3     1  UNL1        0.1025
     58 C         -27.3700   -1.4480   55.0200 C.2     1  UNL1        0.2367
     59 O         -26.4830   -0.5890   55.0050 O.2     1  UNL1       -0.2735
     60 C         -27.0600   -3.8060   55.8350 C.3     1  UNL1       -0.0243
     61 C         -25.6580   -3.6210   56.3980 C.3     1  UNL1       -0.0350
     62 C         -24.7970   -3.5530   55.1490 C.3     1  UNL1        0.0156
     63 H         -27.7870   -3.2430   53.8560 H       1  UNL1        0.0597
     64 H         -27.8220   -3.5610   56.5770 H       1  UNL1        0.0288
     65 H         -27.1940   -4.8510   55.5380 H       1  UNL1        0.0288
     66 H         -25.5950   -2.6790   56.9550 H       1  UNL1        0.0281
     67 H         -25.3590   -4.4310   57.0690 H       1  UNL1        0.0281
     68 H         -23.9520   -2.8670   55.2660 H       1  UNL1        0.0465
     69 H         -24.4100   -4.5430   54.8810 H       1  UNL1        0.0465
     70 N         -28.6500   -1.1600   55.5130 N.am    1  UNL1       -0.2884
     71 O         -31.7950   -2.2420   53.8460 O.2     1  UNL1       -0.2738
     72 C         -29.8600   -1.9990   55.3010 C.3     1  UNL1        0.1025
     73 C         -30.8390   -1.5440   54.1780 C.2     1  UNL1        0.2342
     74 C         -30.6320   -2.1930   56.6170 C.3     1  UNL1       -0.0231
     75 C         -30.8990   -0.8650   57.3380 C.3     1  UNL1       -0.0403
     76 C         -31.6180   -1.1040   58.6640 C.3     1  UNL1       -0.0623
     77 C         -29.5760   -0.1270   57.5650 C.3     1  UNL1       -0.0345
     78 C         -28.8370    0.0980   56.2500 C.3     1  UNL1        0.0158
     79 H         -29.5430   -2.9900   54.9670 H       1  UNL1        0.0597
     80 H         -30.0430   -2.8440   57.2770 H       1  UNL1        0.0290
     81 H         -31.5810   -2.7130   56.4340 H       1  UNL1        0.0290
     82 H         -31.5490   -0.2420   56.7090 H       1  UNL1        0.0299
     83 H         -31.0160   -1.7230   59.3390 H       1  UNL1        0.0232
     84 H         -31.8250   -0.1550   59.1700 H       1  UNL1        0.0232
     85 H         -32.5740   -1.6120   58.5010 H       1  UNL1        0.0232
     86 H         -28.9380   -0.7100   58.2420 H       1  UNL1        0.0283
     87 H         -29.7590    0.8390   58.0490 H       1  UNL1        0.0283
     88 H         -27.8720    0.5680   56.4670 H       1  UNL1        0.0465
     89 H         -29.3940    0.8010   55.6250 H       1  UNL1        0.0465
     90 N         -30.5850   -0.3160   53.6300 N.am    1  UNL1       -0.3027
     91 C         -31.3580    0.2980   52.5530 C.3     1  UNL1        0.0968
     92 C         -30.6930    1.6570   52.2070 C.2     1  UNL1        0.2363
     93 O         -30.9810    2.6780   52.8430 O.2     1  UNL1       -0.2736
     94 C         -32.8100    0.5480   52.9640 C.3     1  UNL1       -0.0381
     95 H         -29.6250    0.0070   53.7300 H       1  UNL1        0.1495
     96 H         -31.3440   -0.3760   51.6930 H       1  UNL1        0.0592
     97 H         -33.3550   -0.3890   53.1070 H       1  UNL1        0.0252
     98 H         -33.3370    1.1250   52.1960 H       1  UNL1        0.0252
     99 H         -32.8680    1.1090   53.9040 H       1  UNL1        0.0252
    100 N         -29.6860    1.7020   51.2610 N.am    1  UNL1       -0.2865
    101 C         -29.1500    0.6150   50.4240 C.3     1  UNL1        0.1230
    102 C         -28.1500   -0.2170   51.2440 C.2     1  UNL1        0.3282
    103 O         -28.3750   -0.6280   52.3780 O.2     1  UNL1       -0.2487
    104 C         -28.5240    1.3660   49.2460 C.3     1  UNL1       -0.0225
    105 C         -27.9940    2.6380   49.8960 C.3     1  UNL1       -0.0349
    106 C         -29.0710    2.9750   50.9170 C.3     1  UNL1        0.0157
    107 H         -29.9590   -0.0290   50.0810 H       1  UNL1        0.0616
    108 H         -27.7490    0.8130   48.7080 H       1  UNL1        0.0289
    109 H         -29.3060    1.6290   48.5220 H       1  UNL1        0.0289
    110 H         -27.0440    2.4330   50.4030 H       1  UNL1        0.0281
    111 H         -27.8290    3.4460   49.1790 H       1  UNL1        0.0281
    112 H         -28.6660    3.4620   51.8100 H       1  UNL1        0.0465
    113 H         -29.8440    3.6200   50.4840 H       1  UNL1        0.0465
@<TRIPOS>BOND
     1    21    10    1
     2    18     9    1
     3    19     9    1
     4    10    22    1
     5    10     9    1
     6    10    20    1
     7     9     7    1
     8    17     8    1
     9    15     8    1
    10    13     6    1
    11     7     8    1
    12     7     6    1
    13     7    14    1
    14     8    16    1
    15    12     6    1
    16     6     5    1
    17     1     4    1
    18     5     4    2
    19     5    11    1
    20     4     3    1
    21   109   104    1
    22   108   104    1
    23    36    24    1
    24   111   105    1
    25     3    24   am
    26     3     2    2
    27   104   105    1
    28   104   101    1
    29    24    28    1
    30    53    49    1
    31   105   110    1
    32   105   106    1
    33   107   101    1
    34   101   102    1
    35   101   100    1
    36   113   106    1
    37    48   102    1
    38    48    47    1
    39    51    44    1
    40    54    49    1
    41    39    29    1
    42    25    23    2
    43    49    55    1
    44    49    47    1
    45   106   100    1
    46   106   112    1
    47    28    23    1
    48    28    29    1
    49    28    37    1
    50    38    29    1
    51    23    43   am
    52   102   103    2
    53   100    92   am
    54    29    30    1
    55    47    44    1
    56    47    52    1
    57    43    44    1
    58    43    50    1
    59    44    45    1
    60    96    91    1
    61    98    94    1
    62    92    91    1
    63    92    93    2
    64    91    94    1
    65    91    90    1
    66    42    33    1
    67    46    45    2
    68    30    33   ar
    69    30    32   ar
    70    45    56   am
    71    94    97    1
    72    94    99    1
    73    33    35   ar
    74    41    32    1
    75    90    95    1
    76    90    73   am
    77    32    34   ar
    78    71    73    2
    79    63    57    1
    80    56    57    1
    81    56    62    1
    82    73    72    1
    83    57    58    1
    84    57    60    1
    85    35    27    1
    86    35    31   ar
    87    69    62    1
    88    79    72    1
    89    59    58    2
    90    58    70   am
    91    34    31   ar
    92    34    26    1
    93    62    68    1
    94    62    61    1
    95    72    70    1
    96    72    74    1
    97    70    78    1
    98    31    40    1
    99    65    60    1
   100    89    78    1
   101    60    61    1
   102    60    64    1
   103    78    88    1
   104    78    77    1
   105    61    66    1
   106    61    67    1
   107    81    74    1
   108    74    80    1
   109    74    75    1
   110    82    75    1
   111    75    77    1
   112    75    76    1
   113    77    87    1
   114    77    86    1
   115    85    76    1
   116    76    84    1
   117    76    83    1
