@<TRIPOS>MOLECULE
110.63291
 113 117 0 0 0
SMALL
GASTEIGER

@<TRIPOS>ATOM
      1 H         -30.3510   -4.4530   46.8040 H       1  UNL1        0.0666
      2 O         -31.5800   -5.0380   49.8300 O.2     1  UNL1       -0.2708
      3 C         -30.7660   -4.9420   48.9210 C.2     1  UNL1        0.2372
      4 C         -31.1260   -4.4650   47.5610 C.2     1  UNL1       -0.0038
      5 C         -32.3770   -4.0670   47.2850 C.2     1  UNL1       -0.0789
      6 C         -32.8160   -3.5810   45.9320 C.3     1  UNL1       -0.0317
      7 C         -33.3540   -2.1350   45.9490 C.3     1  UNL1       -0.0407
      8 C         -32.2810   -1.1430   46.4230 C.3     1  UNL1       -0.0621
      9 C         -33.8600   -1.6960   44.5590 C.3     1  UNL1       -0.0530
     10 C         -35.0500   -2.5000   44.0540 C.3     1  UNL1       -0.0650
     11 H         -33.1380   -4.1020   48.0630 H       1  UNL1        0.0574
     12 H         -33.6000   -4.2670   45.5900 H       1  UNL1        0.0310
     13 H         -31.9950   -3.6590   45.2080 H       1  UNL1        0.0310
     14 H         -34.1940   -2.0790   46.6540 H       1  UNL1        0.0301
     15 H         -32.6660   -0.1180   46.4070 H       1  UNL1        0.0233
     16 H         -31.9670   -1.3530   47.4510 H       1  UNL1        0.0233
     17 H         -31.3960   -1.1820   45.7800 H       1  UNL1        0.0233
     18 H         -33.0470   -1.7590   43.8260 H       1  UNL1        0.0265
     19 H         -34.1610   -0.6420   44.6050 H       1  UNL1        0.0265
     20 H         -35.8600   -2.5090   44.7890 H       1  UNL1        0.0230
     21 H         -35.4360   -2.0560   43.1310 H       1  UNL1        0.0230
     22 H         -34.7720   -3.5330   43.8280 H       1  UNL1        0.0230
     23 C         -27.5830   -4.9570   50.5220 C.2     1  UNL1        0.2344
     24 N         -29.4370   -5.2400   49.0440 N.am    1  UNL1       -0.3002
     25 O         -26.6630   -4.9500   49.7030 O.2     1  UNL1       -0.2737
     26 F         -31.6850   -9.8460   47.5460 F       1  UNL1       -0.2054
     27 F         -32.1770   -9.7270   52.2280 F       1  UNL1       -0.2054
     28 C         -28.8670   -5.7540   50.2870 C.3     1  UNL1        0.1036
     29 C         -28.4960   -7.2420   50.1820 C.3     1  UNL1       -0.0005
     30 C         -29.6970   -8.1520   50.0810 C.ar    1  UNL1       -0.0397
     31 C         -31.9640   -9.8090   49.8840 C.ar    1  UNL1        0.0088
     32 C         -30.1470   -8.6030   48.8320 C.ar    1  UNL1       -0.0230
     33 C         -30.3990   -8.5400   51.2300 C.ar    1  UNL1       -0.0230
     34 C         -31.2700   -9.4230   48.7480 C.ar    1  UNL1        0.1264
     35 C         -31.5200   -9.3610   51.1200 C.ar    1  UNL1        0.1264
     36 H         -28.7960   -5.0310   48.2750 H       1  UNL1        0.1498
     37 H         -29.5660   -5.5880   51.1140 H       1  UNL1        0.0598
     38 H         -27.8390   -7.4140   49.3190 H       1  UNL1        0.0336
     39 H         -27.9060   -7.5400   51.0590 H       1  UNL1        0.0336
     40 H         -32.8370  -10.4460   49.8090 H       1  UNL1        0.0675
     41 H         -29.6380   -8.3150   47.9160 H       1  UNL1        0.0649
     42 H         -30.0900   -8.2070   52.2170 H       1  UNL1        0.0649
     43 N         -27.5530   -4.1880   51.6590 N.am    1  UNL1       -0.2995
     44 C         -26.3720   -3.3990   52.0260 C.3     1  UNL1        0.1366
     45 C         -25.8780   -3.9330   53.3750 C.2     1  UNL1        0.2402
     46 O         -26.5960   -3.8500   54.3750 O.2     1  UNL1       -0.2734
     47 C         -26.7000   -1.8940   52.0800 C.3     1  UNL1        0.1270
     48 O         -26.8900   -1.3780   50.7300 O.3     1  UNL1       -0.4580
     49 C         -25.7040   -1.0290   52.8540 C.3     1  UNL1       -0.0254
     50 H         -28.3010   -4.2580   52.3420 H       1  UNL1        0.1496
     51 H         -25.6260   -3.5680   51.2570 H       1  UNL1        0.0632
     52 H         -27.6760   -1.7630   52.5640 H       1  UNL1        0.0755
     53 H         -24.6690   -1.2310   52.5630 H       1  UNL1        0.0266
     54 H         -25.8930    0.0340   52.6690 H       1  UNL1        0.0266
     55 H         -25.7830   -1.2070   53.9310 H       1  UNL1        0.0266
     56 N         -24.6500   -4.5580   53.4030 N.am    1  UNL1       -0.2883
     57 C         -23.7150   -4.7330   52.2800 C.3     1  UNL1        0.1025
     58 C         -24.1780   -5.8590   51.3130 C.2     1  UNL1        0.2367
     59 O         -24.9510   -6.7350   51.7160 O.2     1  UNL1       -0.2735
     60 C         -22.4050   -5.1300   52.9630 C.3     1  UNL1       -0.0243
     61 C         -22.8720   -5.8810   54.2080 C.3     1  UNL1       -0.0350
     62 C         -24.1190   -5.1200   54.6300 C.3     1  UNL1        0.0156
     63 H         -23.6230   -3.7790   51.7610 H       1  UNL1        0.0597
     64 H         -21.7450   -5.7410   52.3400 H       1  UNL1        0.0288
     65 H         -21.8560   -4.2300   53.2660 H       1  UNL1        0.0288
     66 H         -23.1320   -6.9130   53.9450 H       1  UNL1        0.0281
     67 H         -22.1130   -5.9130   54.9950 H       1  UNL1        0.0281
     68 H         -24.8610   -5.7570   55.1210 H       1  UNL1        0.0465
     69 H         -23.8720   -4.2880   55.3000 H       1  UNL1        0.0465
     70 N         -23.6520   -5.8950   50.0250 N.am    1  UNL1       -0.2884
     71 O         -22.6320   -3.4590   47.4430 O.2     1  UNL1       -0.2738
     72 C         -22.7530   -4.8880   49.4160 C.3     1  UNL1        0.1025
     73 C         -23.3480   -4.0950   48.2170 C.2     1  UNL1        0.2342
     74 C         -21.4340   -5.5710   49.0090 C.3     1  UNL1       -0.0231
     75 C         -21.6760   -6.7940   48.1060 C.3     1  UNL1       -0.0403
     76 C         -20.3600   -7.4970   47.7800 C.3     1  UNL1       -0.0623
     77 C         -22.6590   -7.7660   48.7760 C.3     1  UNL1       -0.0345
     78 C         -23.9490   -7.0560   49.1790 C.3     1  UNL1        0.0158
     79 H         -22.5010   -4.1210   50.1510 H       1  UNL1        0.0597
     80 H         -20.9100   -5.8960   49.9180 H       1  UNL1        0.0290
     81 H         -20.7700   -4.8610   48.5020 H       1  UNL1        0.0290
     82 H         -22.1170   -6.4520   47.1600 H       1  UNL1        0.0299
     83 H         -19.8690   -7.8650   48.6880 H       1  UNL1        0.0232
     84 H         -20.5310   -8.3510   47.1170 H       1  UNL1        0.0232
     85 H         -19.6700   -6.8130   47.2750 H       1  UNL1        0.0232
     86 H         -22.1940   -8.2030   49.6700 H       1  UNL1        0.0283
     87 H         -22.8940   -8.5930   48.0970 H       1  UNL1        0.0283
     88 H         -24.6060   -7.7670   49.6900 H       1  UNL1        0.0465
     89 H         -24.4860   -6.7140   48.2890 H       1  UNL1        0.0465
     90 N         -24.7180   -4.0620   48.1180 N.am    1  UNL1       -0.3027
     91 C         -25.3920   -3.4730   46.9680 C.3     1  UNL1        0.0968
     92 C         -26.8800   -3.1680   47.2700 C.2     1  UNL1        0.2363
     93 O         -27.7710   -3.9870   47.0130 O.2     1  UNL1       -0.2736
     94 C         -25.3040   -4.4240   45.7710 C.3     1  UNL1       -0.0381
     95 H         -25.2910   -4.5580   48.8080 H       1  UNL1        0.1495
     96 H         -24.8780   -2.5490   46.6880 H       1  UNL1        0.0592
     97 H         -24.2630   -4.5900   45.4720 H       1  UNL1        0.0252
     98 H         -25.8420   -4.0170   44.9080 H       1  UNL1        0.0252
     99 H         -25.7370   -5.4030   46.0070 H       1  UNL1        0.0252
    100 N         -27.1940   -1.9650   47.8730 N.am    1  UNL1       -0.2865
    101 C         -26.2800   -0.9720   48.4390 C.3     1  UNL1        0.1230
    102 C         -25.8390   -1.3590   49.8610 C.2     1  UNL1        0.3282
    103 O         -24.6860   -1.6480   50.1600 O.2     1  UNL1       -0.2487
    104 C         -27.0930    0.3220   48.4120 C.3     1  UNL1       -0.0225
    105 C         -28.5410   -0.1360   48.5830 C.3     1  UNL1       -0.0349
    106 C         -28.5780   -1.5300   47.9720 C.3     1  UNL1        0.0157
    107 H         -25.3780   -0.8670   47.8300 H       1  UNL1        0.0616
    108 H         -26.7950    1.0440   49.1780 H       1  UNL1        0.0289
    109 H         -26.9860    0.8010   47.4310 H       1  UNL1        0.0289
    110 H         -28.8100   -0.1800   49.6440 H       1  UNL1        0.0281
    111 H         -29.2510    0.5430   48.1010 H       1  UNL1        0.0281
    112 H         -29.1460   -2.2320   48.5880 H       1  UNL1        0.0465
    113 H         -29.0100   -1.5190   46.9650 H       1  UNL1        0.0465
@<TRIPOS>BOND
     1    21    10    1
     2    18     9    1
     3    22    10    1
     4    10     9    1
     5    10    20    1
     6     9    19    1
     7     9     7    1
     8    98    94    1
     9    13     6    1
    10    97    94    1
    11    12     6    1
    12    94    99    1
    13    94    91    1
    14    17     8    1
    15     6     7    1
    16     6     5    1
    17     7     8    1
    18     7    14    1
    19    15     8    1
    20     8    16    1
    21    96    91    1
    22     1     4    1
    23   113   106    1
    24    91    92    1
    25    91    90    1
    26    93    92    2
    27    84    76    1
    28    82    75    1
    29    92   100   am
    30    85    76    1
    31     5     4    2
    32     5    11    1
    33   109   104    1
    34    71    73    2
    35    26    34    1
    36     4     3    1
    37    76    75    1
    38    76    83    1
    39   107   101    1
    40   100   106    1
    41   100   101    1
    42    41    32    1
    43   106   105    1
    44   106   112    1
    45    87    77    1
    46   111   105    1
    47    75    77    1
    48    75    74    1
    49    90    73   am
    50    90    95    1
    51    73    72    1
    52    36    24    1
    53    89    78    1
    54   104   101    1
    55   104   105    1
    56   104   108    1
    57   101   102    1
    58    81    74    1
    59   105   110    1
    60    34    32   ar
    61    34    31   ar
    62    77    78    1
    63    77    86    1
    64    32    30   ar
    65     3    24   am
    66     3     2    2
    67    74    72    1
    68    74    80    1
    69    24    28    1
    70    78    88    1
    71    78    70    1
    72    38    29    1
    73    72    70    1
    74    72    79    1
    75    25    23    2
    76    40    31    1
    77   102   103    2
    78   102    48    1
    79    31    35   ar
    80    70    58   am
    81    30    29    1
    82    30    33   ar
    83    29    28    1
    84    29    39    1
    85    28    23    1
    86    28    37    1
    87    23    43   am
    88    48    47    1
    89    35    33   ar
    90    35    27    1
    91    33    42    1
    92    51    44    1
    93    58    59    2
    94    58    57    1
    95    43    44    1
    96    43    50    1
    97    63    57    1
    98    44    47    1
    99    44    45    1
   100    47    52    1
   101    47    49    1
   102    57    60    1
   103    57    56    1
   104    64    60    1
   105    53    49    1
   106    54    49    1
   107    49    55    1
   108    60    65    1
   109    60    61    1
   110    45    56   am
   111    45    46    2
   112    56    62    1
   113    66    61    1
   114    61    62    1
   115    61    67    1
   116    62    68    1
   117    62    69    1
