@<TRIPOS>MOLECULE
120.25867
 113 117 0 0 0
SMALL
GASTEIGER

@<TRIPOS>ATOM
      1 H         -26.4700   -6.1220   51.5790 H       1  UNL1        0.0666
      2 O         -28.9510   -4.2440   50.4430 O.2     1  UNL1       -0.2708
      3 C         -28.3620   -5.0520   51.1510 C.2     1  UNL1        0.2372
      4 C         -27.0120   -5.5710   50.8200 C.2     1  UNL1       -0.0038
      5 C         -26.4940   -5.3680   49.5980 C.2     1  UNL1       -0.0789
      6 C         -25.1480   -5.8750   49.1620 C.3     1  UNL1       -0.0317
      7 C         -24.2260   -4.7660   48.6140 C.3     1  UNL1       -0.0407
      8 C         -23.9460   -3.6940   49.6760 C.3     1  UNL1       -0.0621
      9 C         -22.8840   -5.3340   48.1080 C.3     1  UNL1       -0.0530
     10 C         -23.0230   -6.2840   46.9270 C.3     1  UNL1       -0.0650
     11 H         -27.0720   -4.8250   48.8510 H       1  UNL1        0.0574
     12 H         -25.3320   -6.6230   48.3830 H       1  UNL1        0.0310
     13 H         -24.6460   -6.3970   49.9870 H       1  UNL1        0.0310
     14 H         -24.7290   -4.2740   47.7700 H       1  UNL1        0.0301
     15 H         -23.2710   -2.9250   49.2830 H       1  UNL1        0.0233
     16 H         -24.8650   -3.1870   49.9870 H       1  UNL1        0.0233
     17 H         -23.4790   -4.1300   50.5660 H       1  UNL1        0.0233
     18 H         -22.3630   -5.8500   48.9240 H       1  UNL1        0.0265
     19 H         -22.2380   -4.5040   47.7980 H       1  UNL1        0.0265
     20 H         -23.5940   -5.8220   46.1150 H       1  UNL1        0.0230
     21 H         -22.0330   -6.5450   46.5380 H       1  UNL1        0.0230
     22 H         -23.5180   -7.2160   47.2140 H       1  UNL1        0.0230
     23 C         -29.9190   -4.1310   53.9260 C.2     1  UNL1        0.2344
     24 N         -28.8640   -5.5770   52.3120 N.am    1  UNL1       -0.3002
     25 O         -29.2090   -4.3730   54.9000 O.2     1  UNL1       -0.2737
     26 F         -30.6000  -10.8550   51.5610 F       1  UNL1       -0.2054
     27 F         -33.5080   -7.7630   49.5200 F       1  UNL1       -0.2054
     28 C         -30.1700   -5.1770   52.8300 C.3     1  UNL1        0.1036
     29 C         -30.9420   -6.3540   53.4410 C.3     1  UNL1       -0.0005
     30 C         -31.3390   -7.3970   52.4210 C.ar    1  UNL1       -0.0397
     31 C         -32.0640   -9.3370   50.5120 C.ar    1  UNL1        0.0088
     32 C         -30.7810   -8.6820   52.4610 C.ar    1  UNL1       -0.0230
     33 C         -32.2690   -7.0980   51.4150 C.ar    1  UNL1       -0.0230
     34 C         -31.1470   -9.6330   51.5090 C.ar    1  UNL1        0.1264
     35 C         -32.6190   -8.0670   50.4750 C.ar    1  UNL1        0.1264
     36 H         -28.2720   -6.1270   52.9220 H       1  UNL1        0.1498
     37 H         -30.7450   -4.7350   52.0140 H       1  UNL1        0.0598
     38 H         -30.3480   -6.8230   54.2360 H       1  UNL1        0.0336
     39 H         -31.8550   -5.9890   53.9300 H       1  UNL1        0.0336
     40 H         -32.3400  -10.0830   49.7770 H       1  UNL1        0.0675
     41 H         -30.0590   -8.9590   53.2240 H       1  UNL1        0.0649
     42 H         -32.7260   -6.1140   51.3440 H       1  UNL1        0.0649
     43 N         -30.5000   -2.9060   53.7010 N.am    1  UNL1       -0.2995
     44 C         -30.2290   -1.7460   54.5540 C.3     1  UNL1        0.1366
     45 C         -31.1550   -1.6600   55.7920 C.2     1  UNL1        0.2402
     46 O         -30.6390   -1.4140   56.8910 O.2     1  UNL1       -0.2734
     47 C         -30.2090   -0.4320   53.7470 C.3     1  UNL1        0.1270
     48 O         -29.4270   -0.6480   52.5410 O.3     1  UNL1       -0.4580
     49 C         -29.5750    0.7200   54.5210 C.3     1  UNL1       -0.0254
     50 H         -31.0370   -2.7770   52.8420 H       1  UNL1        0.1496
     51 H         -29.2140   -1.9050   54.9460 H       1  UNL1        0.0632
     52 H         -31.2260   -0.1610   53.4710 H       1  UNL1        0.0755
     53 H         -28.5430    0.4820   54.8010 H       1  UNL1        0.0266
     54 H         -29.5300    1.6210   53.9000 H       1  UNL1        0.0266
     55 H         -30.1410    0.9580   55.4270 H       1  UNL1        0.0266
     56 N         -32.5310   -1.7400   55.6910 N.am    1  UNL1       -0.2883
     57 C         -33.4060   -1.8710   54.5130 C.3     1  UNL1        0.1025
     58 C         -33.6610   -0.5030   53.8180 C.2     1  UNL1        0.2367
     59 O         -33.4950    0.5430   54.4560 O.2     1  UNL1       -0.2735
     60 C         -34.7200   -2.3910   55.1030 C.3     1  UNL1       -0.0243
     61 C         -34.7770   -1.7200   56.4690 C.3     1  UNL1       -0.0350
     62 C         -33.3230   -1.7040   56.9140 C.3     1  UNL1        0.0156
     63 H         -32.9780   -2.5900   53.8280 H       1  UNL1        0.0597
     64 H         -35.6030   -2.1610   54.4980 H       1  UNL1        0.0288
     65 H         -34.6650   -3.4790   55.2320 H       1  UNL1        0.0288
     66 H         -35.1520   -0.6940   56.3690 H       1  UNL1        0.0281
     67 H         -35.4250   -2.2460   57.1750 H       1  UNL1        0.0281
     68 H         -33.0800   -0.8170   57.5080 H       1  UNL1        0.0465
     69 H         -33.0770   -2.5970   57.5010 H       1  UNL1        0.0465
     70 N         -34.1040   -0.4730   52.4940 N.am    1  UNL1       -0.2884
     71 O         -32.2620   -2.8930   51.6490 O.2     1  UNL1       -0.2738
     72 C         -34.3230   -1.6510   51.6380 C.3     1  UNL1        0.1025
     73 C         -32.9980   -2.1360   51.0090 C.2     1  UNL1        0.2342
     74 C         -35.5030   -1.5060   50.6630 C.3     1  UNL1       -0.0231
     75 C         -35.6690   -0.1150   50.0340 C.3     1  UNL1       -0.0403
     76 C         -37.0110   -0.0060   49.3100 C.3     1  UNL1       -0.0623
     77 C         -35.5360    0.9730   51.1000 C.3     1  UNL1       -0.0345
     78 C         -34.2130    0.8320   51.8410 C.3     1  UNL1        0.0158
     79 H         -34.6080   -2.4830   52.2940 H       1  UNL1        0.0597
     80 H         -36.4190   -1.7270   51.2290 H       1  UNL1        0.0290
     81 H         -35.4420   -2.2660   49.8750 H       1  UNL1        0.0290
     82 H         -34.8870    0.0410   49.2830 H       1  UNL1        0.0299
     83 H         -37.8500   -0.1330   50.0020 H       1  UNL1        0.0232
     84 H         -37.1140    0.9730   48.8310 H       1  UNL1        0.0232
     85 H         -37.0940   -0.7710   48.5310 H       1  UNL1        0.0232
     86 H         -36.3670    0.9050   51.8140 H       1  UNL1        0.0283
     87 H         -35.5900    1.9630   50.6330 H       1  UNL1        0.0283
     88 H         -34.1190    1.6510   52.5600 H       1  UNL1        0.0465
     89 H         -33.3760    0.9250   51.1410 H       1  UNL1        0.0465
     90 N         -32.5970   -1.6180   49.8120 N.am    1  UNL1       -0.3027
     91 C         -31.3430   -2.0320   49.1760 C.3     1  UNL1        0.0968
     92 C         -30.7830   -0.8230   48.4030 C.2     1  UNL1        0.2363
     93 O         -31.3490   -0.4220   47.3810 O.2     1  UNL1       -0.2736
     94 C         -31.5940   -3.1970   48.2240 C.3     1  UNL1       -0.0381
     95 H         -33.1330   -0.9080   49.3300 H       1  UNL1        0.1495
     96 H         -30.6490   -2.3640   49.9450 H       1  UNL1        0.0592
     97 H         -31.9680   -4.0700   48.7680 H       1  UNL1        0.0252
     98 H         -30.6700   -3.4830   47.7100 H       1  UNL1        0.0252
     99 H         -32.3370   -2.9410   47.4600 H       1  UNL1        0.0252
    100 N         -29.7310   -0.1240   48.9550 N.am    1  UNL1       -0.2865
    101 C         -29.0160   -0.4070   50.2100 C.3     1  UNL1        0.1230
    102 C         -29.8620   -0.0010   51.4230 C.2     1  UNL1        0.3282
    103 O         -30.7900    0.7970   51.3920 O.2     1  UNL1       -0.2487
    104 C         -27.7620    0.4620   50.1220 C.3     1  UNL1       -0.0225
    105 C         -28.2250    1.6610   49.3010 C.3     1  UNL1       -0.0349
    106 C         -29.1830    1.0460   48.2920 C.3     1  UNL1        0.0157
    107 H         -28.7740   -1.4710   50.2700 H       1  UNL1        0.0616
    108 H         -27.3600    0.7580   51.0960 H       1  UNL1        0.0289
    109 H         -26.9770   -0.0730   49.5740 H       1  UNL1        0.0289
    110 H         -28.7610    2.3690   49.9450 H       1  UNL1        0.0281
    111 H         -27.3990    2.1960   48.8240 H       1  UNL1        0.0281
    112 H         -29.9780    1.7340   47.9900 H       1  UNL1        0.0465
    113 H         -28.6530    0.7050   47.3950 H       1  UNL1        0.0465
@<TRIPOS>BOND
     1    20    10    1
     2    21    10    1
     3    10    22    1
     4    10     9    1
     5    93    92    2
     6   113   106    1
     7    99    94    1
     8    98    94    1
     9    14     7    1
    10    19     9    1
    11   112   106    1
    12     9     7    1
    13     9    18    1
    14    94    97    1
    15    94    91    1
    16   106   100    1
    17   106   105    1
    18    12     6    1
    19    92   100   am
    20    92    91    1
    21    85    76    1
    22     7     6    1
    23     7     8    1
    24   111   105    1
    25    84    76    1
    26    11     5    1
    27   100   101    1
    28     6     5    1
    29     6    13    1
    30    91    90    1
    31    91    96    1
    32    15     8    1
    33    82    75    1
    34   105   110    1
    35   105   104    1
    36    76    83    1
    37    76    75    1
    38    95    90    1
    39    27    35    1
    40   109   104    1
    41     5     4    2
    42     8    16    1
    43     8    17    1
    44    40    31    1
    45    90    73   am
    46    81    74    1
    47    75    74    1
    48    75    77    1
    49   104   101    1
    50   104   108    1
    51   101   107    1
    52   101   102    1
    53     2     3    2
    54    35    31   ar
    55    35    33   ar
    56    31    34   ar
    57    87    77    1
    58    74    80    1
    59    74    72    1
    60     4     3    1
    61     4     1    1
    62    73    72    1
    63    73    71    2
    64    77    86    1
    65    77    78    1
    66    89    78    1
    67     3    24   am
    68    42    33    1
    69   103   102    2
    70    33    30   ar
    71   102    48    1
    72    34    26    1
    73    34    32   ar
    74    72    79    1
    75    72    70    1
    76    78    70    1
    77    78    88    1
    78    37    28    1
    79    24    28    1
    80    24    36    1
    81    30    32   ar
    82    30    29    1
    83    32    41    1
    84    70    58   am
    85    48    47    1
    86    28    29    1
    87    28    23    1
    88    50    43    1
    89    29    39    1
    90    29    38    1
    91    52    47    1
    92    43    23   am
    93    43    44    1
    94    47    49    1
    95    47    44    1
    96    58    59    2
    97    58    57    1
    98    63    57    1
    99    54    49    1
   100    23    25    2
   101    64    60    1
   102    57    60    1
   103    57    56    1
   104    49    53    1
   105    49    55    1
   106    44    51    1
   107    44    45    1
   108    60    65    1
   109    60    61    1
   110    56    45   am
   111    56    62    1
   112    45    46    2
   113    66    61    1
   114    61    62    1
   115    61    67    1
   116    62    69    1
   117    62    68    1
