@<TRIPOS>MOLECULE
124.35628
 113 117 0 0 0
SMALL
GASTEIGER

@<TRIPOS>ATOM
      1 H         -31.4300   -2.6300   49.6800 H       1  UNL1        0.0666
      2 O         -30.0260   -4.3370   52.1510 O.2     1  UNL1       -0.2708
      3 C         -30.1690   -3.8140   51.0530 C.2     1  UNL1        0.2372
      4 C         -31.3220   -2.9470   50.7100 C.2     1  UNL1       -0.0038
      5 C         -32.1920   -2.5680   51.6600 C.2     1  UNL1       -0.0789
      6 C         -33.3620   -1.6590   51.4080 C.3     1  UNL1       -0.0317
      7 C         -34.7310   -2.3680   51.4710 C.3     1  UNL1       -0.0407
      8 C         -34.9780   -3.0100   52.8440 C.3     1  UNL1       -0.0621
      9 C         -35.8900   -1.3970   51.1610 C.3     1  UNL1       -0.0530
     10 C         -35.8620   -0.8330   49.7470 C.3     1  UNL1       -0.0650
     11 H         -32.0470   -2.9080   52.6850 H       1  UNL1        0.0574
     12 H         -33.2350   -1.1850   50.4280 H       1  UNL1        0.0310
     13 H         -33.3290   -0.8470   52.1460 H       1  UNL1        0.0310
     14 H         -34.7450   -3.1710   50.7210 H       1  UNL1        0.0301
     15 H         -35.9710   -3.4700   52.8850 H       1  UNL1        0.0233
     16 H         -34.2510   -3.8010   53.0540 H       1  UNL1        0.0233
     17 H         -34.9170   -2.2660   53.6450 H       1  UNL1        0.0233
     18 H         -35.8880   -0.5680   51.8790 H       1  UNL1        0.0265
     19 H         -36.8430   -1.9250   51.2920 H       1  UNL1        0.0265
     20 H         -35.7980   -1.6350   49.0040 H       1  UNL1        0.0230
     21 H         -36.7770   -0.2640   49.5540 H       1  UNL1        0.0230
     22 H         -35.0180   -0.1530   49.6000 H       1  UNL1        0.0230
     23 C         -26.9520   -3.7660   50.7560 C.2     1  UNL1        0.2344
     24 N         -29.2490   -3.9020   50.0470 N.am    1  UNL1       -0.3002
     25 O         -25.9640   -3.4040   50.1150 O.2     1  UNL1       -0.2737
     26 F         -31.2730   -6.2280   45.7830 F       1  UNL1       -0.2054
     27 F         -29.5860   -9.7170   48.4570 F       1  UNL1       -0.2054
     28 C         -28.0300   -4.7010   50.1830 C.3     1  UNL1        0.1036
     29 C         -27.5740   -5.2740   48.8320 C.3     1  UNL1       -0.0005
     30 C         -28.5710   -6.2310   48.2210 C.ar    1  UNL1       -0.0397
     31 C         -30.4560   -7.9990   47.1030 C.ar    1  UNL1        0.0088
     32 C         -29.4810   -5.7870   47.2510 C.ar    1  UNL1       -0.0230
     33 C         -28.6190   -7.5720   48.6270 C.ar    1  UNL1       -0.0230
     34 C         -30.4090   -6.6710   46.7060 C.ar    1  UNL1        0.1264
     35 C         -29.5560   -8.4380   48.0640 C.ar    1  UNL1        0.1264
     36 H         -29.2650   -3.2240   49.2870 H       1  UNL1        0.1498
     37 H         -28.2010   -5.5100   50.9040 H       1  UNL1        0.0598
     38 H         -27.3780   -4.4620   48.1190 H       1  UNL1        0.0336
     39 H         -26.6150   -5.7950   48.9510 H       1  UNL1        0.0336
     40 H         -31.1800   -8.6800   46.6740 H       1  UNL1        0.0675
     41 H         -29.4790   -4.7550   46.9120 H       1  UNL1        0.0649
     42 H         -27.9350   -7.9570   49.3790 H       1  UNL1        0.0649
     43 N         -27.2020   -3.3150   52.0370 N.am    1  UNL1       -0.2995
     44 C         -26.3170   -2.3570   52.6870 C.3     1  UNL1        0.1366
     45 C         -25.7080   -2.9460   53.9700 C.2     1  UNL1        0.2402
     46 O         -26.3970   -3.5970   54.7580 O.2     1  UNL1       -0.2734
     47 C         -26.9720   -0.9630   52.8510 C.3     1  UNL1        0.1270
     48 O         -26.1390   -0.0540   52.0800 O.3     1  UNL1       -0.4580
     49 C         -27.1020   -0.4670   54.2890 C.3     1  UNL1       -0.0254
     50 H         -27.9790   -3.7190   52.5640 H       1  UNL1        0.1496
     51 H         -25.4930   -2.2310   51.9910 H       1  UNL1        0.0632
     52 H         -27.9680   -0.9760   52.4000 H       1  UNL1        0.0755
     53 H         -26.1210   -0.2950   54.7440 H       1  UNL1        0.0266
     54 H         -27.6270    0.4940   54.3170 H       1  UNL1        0.0266
     55 H         -27.6720   -1.1690   54.9040 H       1  UNL1        0.0266
     56 N         -24.3740   -2.6740   54.2100 N.am    1  UNL1       -0.2883
     57 C         -23.4720   -1.8660   53.3750 C.3     1  UNL1        0.1025
     58 C         -23.0210   -2.6390   52.1030 C.2     1  UNL1        0.2367
     59 O         -22.8260   -3.8570   52.1680 O.2     1  UNL1       -0.2735
     60 C         -22.2740   -1.5970   54.2850 C.3     1  UNL1       -0.0243
     61 C         -22.2360   -2.8230   55.1950 C.3     1  UNL1       -0.0350
     62 C         -23.7060   -3.1570   55.4030 C.3     1  UNL1        0.0156
     63 H         -23.9920   -0.9450   53.1280 H       1  UNL1        0.0597
     64 H         -21.3330   -1.4520   53.7450 H       1  UNL1        0.0288
     65 H         -22.4620   -0.7020   54.8910 H       1  UNL1        0.0288
     66 H         -21.7300   -3.6510   54.6860 H       1  UNL1        0.0281
     67 H         -21.7120   -2.6370   56.1370 H       1  UNL1        0.0281
     68 H         -23.8850   -4.2270   55.5440 H       1  UNL1        0.0465
     69 H         -24.1210   -2.6160   56.2610 H       1  UNL1        0.0465
     70 N         -22.8160   -1.9390   50.9150 N.am    1  UNL1       -0.2884
     71 O         -23.9420    1.1850   49.2930 O.2     1  UNL1       -0.2738
     72 C         -22.8850   -0.4730   50.7350 C.3     1  UNL1        0.1025
     73 C         -23.9670    0.0380   49.7390 C.2     1  UNL1        0.2342
     74 C         -21.4910    0.0540   50.3440 C.3     1  UNL1       -0.0231
     75 C         -20.9210   -0.6830   49.1190 C.3     1  UNL1       -0.0403
     76 C         -19.5070   -0.1980   48.8060 C.3     1  UNL1       -0.0623
     77 C         -20.9360   -2.2010   49.3540 C.3     1  UNL1       -0.0345
     78 C         -22.3310   -2.6810   49.7470 C.3     1  UNL1        0.0158
     79 H         -23.1390    0.0080   51.6800 H       1  UNL1        0.0597
     80 H         -20.8120   -0.0890   51.1960 H       1  UNL1        0.0290
     81 H         -21.5250    1.1320   50.1470 H       1  UNL1        0.0290
     82 H         -21.5530   -0.4600   48.2490 H       1  UNL1        0.0299
     83 H         -18.8250   -0.3920   49.6400 H       1  UNL1        0.0232
     84 H         -19.1110   -0.7030   47.9190 H       1  UNL1        0.0232
     85 H         -19.5020    0.8790   48.6080 H       1  UNL1        0.0232
     86 H         -20.2270   -2.4580   50.1520 H       1  UNL1        0.0283
     87 H         -20.6090   -2.7250   48.4490 H       1  UNL1        0.0283
     88 H         -22.3040   -3.7580   49.9360 H       1  UNL1        0.0465
     89 H         -23.0300   -2.5240   48.9190 H       1  UNL1        0.0465
     90 N         -25.0290   -0.7990   49.4900 N.am    1  UNL1       -0.3027
     91 C         -26.0700   -0.4720   48.5190 C.3     1  UNL1        0.0968
     92 C         -27.5010   -0.6820   49.0770 C.2     1  UNL1        0.2363
     93 O         -28.2140   -1.6210   48.6990 O.2     1  UNL1       -0.2736
     94 C         -25.8500   -1.3050   47.2560 C.3     1  UNL1       -0.0381
     95 H         -25.0450   -1.7410   49.8870 H       1  UNL1        0.1495
     96 H         -25.9850    0.5790   48.2220 H       1  UNL1        0.0592
     97 H         -24.8660   -1.1000   46.8210 H       1  UNL1        0.0252
     98 H         -26.6110   -1.0810   46.5010 H       1  UNL1        0.0252
     99 H         -25.8990   -2.3780   47.4710 H       1  UNL1        0.0252
    100 N         -28.0010    0.2380   49.9810 N.am    1  UNL1       -0.2865
    101 C         -27.3460    1.4240   50.5580 C.3     1  UNL1        0.1230
    102 C         -26.5660    1.2120   51.8710 C.2     1  UNL1        0.3282
    103 O         -26.1770    2.1320   52.5840 O.2     1  UNL1       -0.2487
    104 C         -28.5250    2.3700   50.8150 C.3     1  UNL1       -0.0225
    105 C         -29.6410    1.4160   51.2230 C.3     1  UNL1       -0.0349
    106 C         -29.4180    0.2210   50.3120 C.3     1  UNL1        0.0157
    107 H         -26.6460    1.8540   49.8380 H       1  UNL1        0.0616
    108 H         -28.3370    3.1320   51.5760 H       1  UNL1        0.0289
    109 H         -28.8020    2.8790   49.8840 H       1  UNL1        0.0289
    110 H         -29.5200    1.1220   52.2720 H       1  UNL1        0.0281
    111 H         -30.6380    1.8510   51.1070 H       1  UNL1        0.0281
    112 H         -29.6780   -0.7220   50.7960 H       1  UNL1        0.0465
    113 H         -29.9920    0.3110   49.3830 H       1  UNL1        0.0465
@<TRIPOS>BOND
     1    26    34    1
     2    98    94    1
     3    40    31    1
     4    34    31   ar
     5    34    32   ar
     6    97    94    1
     7    41    32    1
     8    31    35   ar
     9    32    30   ar
    10    94    99    1
    11    94    91    1
    12    84    76    1
    13    35    27    1
    14    35    33   ar
    15    38    29    1
    16    30    33   ar
    17    30    29    1
    18    96    91    1
    19    82    75    1
    20    87    77    1
    21    91    92    1
    22    91    90    1
    23    85    76    1
    24    33    42    1
    25    93    92    2
    26    76    75    1
    27    76    83    1
    28    29    39    1
    29    29    28    1
    30    89    78    1
    31    20    10    1
    32    92   100   am
    33    75    77    1
    34    75    74    1
    35    36    24    1
    36    71    73    2
    37    77    78    1
    38    77    86    1
    39   113   106    1
    40    90    73   am
    41    90    95    1
    42    21    10    1
    43    22    10    1
    44     1     4    1
    45    73    72    1
    46    78    88    1
    47    78    70    1
    48    10     9    1
    49   107   101    1
    50   109   104    1
    51   100   106    1
    52   100   101    1
    53    24    28    1
    54    24     3   am
    55    25    23    2
    56    81    74    1
    57    28    23    1
    58    28    37    1
    59   106   112    1
    60   106   105    1
    61    74    72    1
    62    74    80    1
    63    12     6    1
    64   101   104    1
    65   101   102    1
    66     4     3    1
    67     4     5    2
    68    14     7    1
    69    72    70    1
    70    72    79    1
    71    23    43   am
    72   104   105    1
    73   104   108    1
    74    70    58   am
    75     3     2    2
    76   111   105    1
    77     9    19    1
    78     9     7    1
    79     9    18    1
    80   105   110    1
    81     6     7    1
    82     6     5    1
    83     6    13    1
    84     7     8    1
    85     5    11    1
    86   102    48    1
    87   102   103    2
    88    51    44    1
    89    43    50    1
    90    43    44    1
    91    48    47    1
    92    58    59    2
    93    58    57    1
    94    52    47    1
    95    44    47    1
    96    44    45    1
    97     8    15    1
    98     8    16    1
    99     8    17    1
   100    47    49    1
   101    63    57    1
   102    57    56    1
   103    57    60    1
   104    64    60    1
   105    45    56   am
   106    45    46    2
   107    56    62    1
   108    60    65    1
   109    60    61    1
   110    49    54    1
   111    49    53    1
   112    49    55    1
   113    66    61    1
   114    61    62    1
   115    61    67    1
   116    62    68    1
   117    62    69    1
