@<TRIPOS>MOLECULE
118.65529
 113 117 0 0 0
SMALL
GASTEIGER

@<TRIPOS>ATOM
      1 H         -27.0470   -4.4200   49.9300 H       1  UNL1        0.0666
      2 O         -30.3060   -5.0380   49.8020 O.2     1  UNL1       -0.2708
      3 C         -29.1940   -4.8440   50.2770 C.2     1  UNL1        0.2372
      4 C         -27.9870   -4.6340   49.4390 C.2     1  UNL1       -0.0038
      5 C         -28.0830   -4.6890   48.1010 C.2     1  UNL1       -0.0789
      6 C         -26.9320   -4.4610   47.1600 C.3     1  UNL1       -0.0317
      7 C         -27.2010   -3.3120   46.1660 C.3     1  UNL1       -0.0407
      8 C         -27.3140   -1.9580   46.8760 C.3     1  UNL1       -0.0621
      9 C         -26.1500   -3.2750   45.0370 C.3     1  UNL1       -0.0530
     10 C         -24.7210   -2.9990   45.4820 C.3     1  UNL1       -0.0650
     11 H         -29.0430   -4.9180   47.6380 H       1  UNL1        0.0574
     12 H         -26.7680   -5.3920   46.6040 H       1  UNL1        0.0310
     13 H         -26.0140   -4.2640   47.7260 H       1  UNL1        0.0310
     14 H         -28.1690   -3.5010   45.6800 H       1  UNL1        0.0301
     15 H         -27.4380   -1.1470   46.1500 H       1  UNL1        0.0233
     16 H         -28.1830   -1.9350   47.5410 H       1  UNL1        0.0233
     17 H         -26.4270   -1.7420   47.4810 H       1  UNL1        0.0233
     18 H         -26.4410   -2.5090   44.3070 H       1  UNL1        0.0265
     19 H         -26.1700   -4.2320   44.5010 H       1  UNL1        0.0265
     20 H         -24.3550   -3.7710   46.1640 H       1  UNL1        0.0230
     21 H         -24.0570   -2.9890   44.6110 H       1  UNL1        0.0230
     22 H         -24.6320   -2.0270   45.9750 H       1  UNL1        0.0230
     23 C         -29.6520   -3.8570   53.7210 C.2     1  UNL1        0.2344
     24 N         -28.9400   -4.7600   51.6180 N.am    1  UNL1       -0.3002
     25 O         -28.7250   -4.0560   54.5010 O.2     1  UNL1       -0.2737
     26 F         -34.9480   -6.6310   54.0160 F       1  UNL1       -0.2054
     27 F         -32.0070   -6.4280   57.6870 F       1  UNL1       -0.2054
     28 C         -30.0140   -4.8490   52.6060 C.3     1  UNL1        0.1036
     29 C         -30.1470   -6.2710   53.1660 C.3     1  UNL1       -0.0005
     30 C         -31.3190   -6.3990   54.1120 C.ar    1  UNL1       -0.0397
     31 C         -33.5060   -6.5460   55.8770 C.ar    1  UNL1        0.0088
     32 C         -32.6270   -6.4930   53.6190 C.ar    1  UNL1       -0.0230
     33 C         -31.1200   -6.3760   55.5000 C.ar    1  UNL1       -0.0230
     34 C         -33.7020   -6.5640   54.5030 C.ar    1  UNL1        0.1264
     35 C         -32.2110   -6.4520   56.3640 C.ar    1  UNL1        0.1264
     36 H         -28.0010   -4.6090   51.9690 H       1  UNL1        0.1498
     37 H         -30.9560   -4.5500   52.1330 H       1  UNL1        0.0598
     38 H         -30.2790   -6.9870   52.3440 H       1  UNL1        0.0336
     39 H         -29.2230   -6.5770   53.6740 H       1  UNL1        0.0336
     40 H         -34.3470   -6.6010   56.5570 H       1  UNL1        0.0675
     41 H         -32.8230   -6.5070   52.5490 H       1  UNL1        0.0649
     42 H         -30.1220   -6.2850   55.9240 H       1  UNL1        0.0649
     43 N         -30.3480   -2.6750   53.6570 N.am    1  UNL1       -0.2995
     44 C         -30.1250   -1.5550   54.5720 C.3     1  UNL1        0.1366
     45 C         -31.0580   -1.6100   55.8060 C.2     1  UNL1        0.2402
     46 O         -30.5570   -1.4050   56.9210 O.2     1  UNL1       -0.2734
     47 C         -30.1860   -0.2050   53.8320 C.3     1  UNL1        0.1270
     48 O         -29.4410   -0.3390   52.5890 O.3     1  UNL1       -0.4580
     49 C         -29.5640    0.9300   54.6370 C.3     1  UNL1       -0.0254
     50 H         -30.9560   -2.5140   52.8530 H       1  UNL1        0.1496
     51 H         -29.1040   -1.6820   54.9550 H       1  UNL1        0.0632
     52 H         -31.2210    0.0460   53.6090 H       1  UNL1        0.0755
     53 H         -28.5120    0.7220   54.8610 H       1  UNL1        0.0266
     54 H         -29.5840    1.8620   54.0630 H       1  UNL1        0.0266
     55 H         -30.0990    1.0960   55.5770 H       1  UNL1        0.0266
     56 N         -32.4250   -1.7840   55.6950 N.am    1  UNL1       -0.2883
     57 C         -33.2980   -1.8680   54.5090 C.3     1  UNL1        0.1025
     58 C         -33.6350   -0.4630   53.9340 C.2     1  UNL1        0.2367
     59 O         -33.5220    0.5320   54.6590 O.2     1  UNL1       -0.2735
     60 C         -34.5830   -2.5030   55.0530 C.3     1  UNL1       -0.0243
     61 C         -34.6650   -1.9590   56.4730 C.3     1  UNL1       -0.0350
     62 C         -33.2110   -1.9100   56.9150 C.3     1  UNL1        0.0156
     63 H         -32.8430   -2.5080   53.7630 H       1  UNL1        0.0597
     64 H         -35.4790   -2.2650   54.4710 H       1  UNL1        0.0288
     65 H         -34.4750   -3.5920   55.0860 H       1  UNL1        0.0288
     66 H         -35.0910   -0.9490   56.4650 H       1  UNL1        0.0281
     67 H         -35.2830   -2.5780   57.1300 H       1  UNL1        0.0281
     68 H         -33.0130   -1.0760   57.5960 H       1  UNL1        0.0465
     69 H         -32.9160   -2.8430   57.4090 H       1  UNL1        0.0465
     70 N         -34.1010   -0.3460   52.6230 N.am    1  UNL1       -0.2884
     71 O         -31.9100   -2.1260   51.6170 O.2     1  UNL1       -0.2738
     72 C         -34.2270   -1.4490   51.6510 C.3     1  UNL1        0.1025
     73 C         -32.8660   -1.7110   50.9560 C.2     1  UNL1        0.2342
     74 C         -35.4570   -1.3070   50.7400 C.3     1  UNL1       -0.0231
     75 C         -35.7040    0.1170   50.2170 C.3     1  UNL1       -0.0403
     76 C         -37.0500    0.2040   49.4980 C.3     1  UNL1       -0.0623
     77 C         -35.6370    1.1210   51.3690 C.3     1  UNL1       -0.0345
     78 C         -34.3030    1.0040   52.0920 C.3     1  UNL1        0.0158
     79 H         -34.3990   -2.3730   52.2160 H       1  UNL1        0.0597
     80 H         -36.3370   -1.6060   51.3280 H       1  UNL1        0.0290
     81 H         -35.3990   -2.0110   49.9020 H       1  UNL1        0.0290
     82 H         -34.9280    0.3810   49.4900 H       1  UNL1        0.0299
     83 H         -37.8800   -0.0290   50.1720 H       1  UNL1        0.0232
     84 H         -37.2110    1.2120   49.0990 H       1  UNL1        0.0232
     85 H         -37.0860   -0.4980   48.6580 H       1  UNL1        0.0232
     86 H         -36.4580    0.9420   52.0750 H       1  UNL1        0.0283
     87 H         -35.7560    2.1410   50.9850 H       1  UNL1        0.0283
     88 H         -34.2590    1.7590   52.8830 H       1  UNL1        0.0465
     89 H         -33.4810    1.2150   51.4010 H       1  UNL1        0.0465
     90 N         -32.7210   -1.4260   49.6280 N.am    1  UNL1       -0.3027
     91 C         -31.4690   -1.6840   48.9140 C.3     1  UNL1        0.0968
     92 C         -30.9380   -0.3470   48.3620 C.2     1  UNL1        0.2363
     93 O         -31.5030    0.1920   47.4040 O.2     1  UNL1       -0.2736
     94 C         -31.7300   -2.6530   47.7640 C.3     1  UNL1       -0.0381
     95 H         -33.4390   -0.9450   49.1060 H       1  UNL1        0.1495
     96 H         -30.7410   -2.1460   49.5800 H       1  UNL1        0.0592
     97 H         -32.1020   -3.6110   48.1420 H       1  UNL1        0.0252
     98 H         -30.8120   -2.8380   47.1970 H       1  UNL1        0.0252
     99 H         -32.4800   -2.2620   47.0670 H       1  UNL1        0.0252
    100 N         -29.8850    0.2730   49.0020 N.am    1  UNL1       -0.2865
    101 C         -29.1880   -0.1270   50.2340 C.3     1  UNL1        0.1230
    102 C         -29.9800    0.2650   51.4910 C.2     1  UNL1        0.3282
    103 O         -30.9460    1.0170   51.5040 O.2     1  UNL1       -0.2487
    104 C         -27.8820    0.6640   50.1750 C.3     1  UNL1       -0.0225
    105 C         -28.2970    1.9600   49.4850 C.3     1  UNL1       -0.0349
    106 C         -29.3230    1.5000   48.4600 C.3     1  UNL1        0.0157
    107 H         -29.0160   -1.2070   50.2410 H       1  UNL1        0.0616
    108 H         -27.4260    0.8460   51.1530 H       1  UNL1        0.0289
    109 H         -27.1530    0.1340   49.5490 H       1  UNL1        0.0289
    110 H         -28.7660    2.6350   50.2100 H       1  UNL1        0.0281
    111 H         -27.4550    2.4870   49.0280 H       1  UNL1        0.0281
    112 H         -30.1060    2.2440   48.2860 H       1  UNL1        0.0465
    113 H         -28.8490    1.2570   47.5020 H       1  UNL1        0.0465
@<TRIPOS>BOND
     1    18     9    1
     2    19     9    1
     3    21    10    1
     4     9    10    1
     5     9     7    1
     6    10    22    1
     7    10    20    1
     8    14     7    1
     9    15     8    1
    10     7     8    1
    11     7     6    1
    12    12     6    1
    13     8    17    1
    14     8    16    1
    15    99    94    1
    16     6    13    1
    17     6     5    1
    18    98    94    1
    19    93    92    2
    20   113   106    1
    21    11     5    1
    22    94    97    1
    23    94    91    1
    24     5     4    2
    25   112   106    1
    26    92    91    1
    27    92   100   am
    28   106   100    1
    29   106   105    1
    30    85    76    1
    31    91    96    1
    32    91    90    1
    33   100   101    1
    34   111   105    1
    35    84    76    1
    36    95    90    1
    37     4     1    1
    38     4     3    1
    39   105   104    1
    40   105   110    1
    41    82    75    1
    42    76    83    1
    43    76    75    1
    44   109   104    1
    45    90    73   am
    46     2     3    2
    47    81    74    1
    48   104   101    1
    49   104   108    1
    50    75    74    1
    51    75    77    1
    52   101   107    1
    53   101   102    1
    54     3    24   am
    55    74    80    1
    56    74    72    1
    57    73    71    2
    58    73    72    1
    59    87    77    1
    60    77    86    1
    61    77    78    1
    62    89    78    1
    63   102   103    2
    64   102    48    1
    65    24    36    1
    66    24    28    1
    67    72    79    1
    68    72    70    1
    69    78    70    1
    70    78    88    1
    71    37    28    1
    72    38    29    1
    73    41    32    1
    74    48    47    1
    75    28    29    1
    76    28    23    1
    77    70    58   am
    78    50    43    1
    79    29    39    1
    80    29    30    1
    81    52    47    1
    82    32    30   ar
    83    32    34   ar
    84    43    23   am
    85    43    44    1
    86    23    25    2
    87    63    57    1
    88    47    44    1
    89    47    49    1
    90    58    57    1
    91    58    59    2
    92    26    34    1
    93    54    49    1
    94    30    33   ar
    95    64    60    1
    96    34    31   ar
    97    57    60    1
    98    57    56    1
    99    44    51    1
   100    44    45    1
   101    49    53    1
   102    49    55    1
   103    60    65    1
   104    60    61    1
   105    33    42    1
   106    33    35   ar
   107    56    45   am
   108    56    62    1
   109    45    46    2
   110    31    35   ar
   111    31    40    1
   112    35    27    1
   113    66    61    1
   114    61    62    1
   115    61    67    1
   116    62    69    1
   117    62    68    1
