@<TRIPOS>MOLECULE
121.09492
 113 117 0 0 0
SMALL
GASTEIGER

@<TRIPOS>ATOM
      1 H         -26.8970   -6.6990   46.9440 H       1  UNL1        0.0666
      2 O         -29.6210   -6.4480   48.8140 O.2     1  UNL1       -0.2708
      3 C         -28.4620   -6.2860   48.4540 C.2     1  UNL1        0.2372
      4 C         -27.9640   -6.7140   47.1230 C.2     1  UNL1       -0.0038
      5 C         -28.8340   -7.1210   46.1850 C.2     1  UNL1       -0.0789
      6 C         -28.4410   -7.5820   44.8080 C.3     1  UNL1       -0.0317
      7 C         -28.8040   -9.0570   44.5200 C.3     1  UNL1       -0.0407
      8 C         -30.3190   -9.2940   44.5920 C.3     1  UNL1       -0.0621
      9 C         -28.2990   -9.5070   43.1330 C.3     1  UNL1       -0.0530
     10 C         -26.7830   -9.5420   43.0090 C.3     1  UNL1       -0.0650
     11 H         -29.9000   -7.1050   46.4090 H       1  UNL1        0.0574
     12 H         -27.3640   -7.4330   44.6780 H       1  UNL1        0.0310
     13 H         -28.9340   -6.9320   44.0750 H       1  UNL1        0.0310
     14 H         -28.3310   -9.6920   45.2810 H       1  UNL1        0.0301
     15 H         -30.5640  -10.3300   44.3340 H       1  UNL1        0.0233
     16 H         -30.7070   -9.1180   45.6000 H       1  UNL1        0.0233
     17 H         -30.8560   -8.6380   43.8980 H       1  UNL1        0.0233
     18 H         -28.7110   -8.8550   42.3520 H       1  UNL1        0.0265
     19 H         -28.6730  -10.5180   42.9260 H       1  UNL1        0.0265
     20 H         -26.3370  -10.1420   43.8080 H       1  UNL1        0.0230
     21 H         -26.4960   -9.9880   42.0510 H       1  UNL1        0.0230
     22 H         -26.3500   -8.5380   43.0440 H       1  UNL1        0.0230
     23 C         -26.8160   -4.0730   50.9270 C.2     1  UNL1        0.2344
     24 N         -27.5040   -5.6960   49.2290 N.am    1  UNL1       -0.3002
     25 O         -25.8650   -3.7710   50.2060 O.2     1  UNL1       -0.2737
     26 F         -23.6330   -7.0550   53.9720 F       1  UNL1       -0.2054
     27 F         -24.8170   -9.9520   50.4530 F       1  UNL1       -0.2054
     28 C         -27.8090   -5.1980   50.5670 C.3     1  UNL1        0.1036
     29 C         -27.8660   -6.3150   51.6260 C.3     1  UNL1       -0.0005
     30 C         -26.5770   -7.0770   51.8290 C.ar    1  UNL1       -0.0397
     31 C         -24.1860   -8.5170   52.2110 C.ar    1  UNL1        0.0088
     32 C         -25.6640   -6.6970   52.8240 C.ar    1  UNL1       -0.0230
     33 C         -26.2750   -8.1890   51.0290 C.ar    1  UNL1       -0.0230
     34 C         -24.4850   -7.4190   53.0050 C.ar    1  UNL1        0.1264
     35 C         -25.0880   -8.8920   51.2270 C.ar    1  UNL1        0.1264
     36 H         -26.5610   -5.5400   48.8890 H       1  UNL1        0.1498
     37 H         -28.8010   -4.7280   50.5180 H       1  UNL1        0.0598
     38 H         -28.1810   -5.9020   52.5930 H       1  UNL1        0.0336
     39 H         -28.6510   -7.0350   51.3580 H       1  UNL1        0.0336
     40 H         -23.2690   -9.0730   52.3620 H       1  UNL1        0.0675
     41 H         -25.8550   -5.8480   53.4750 H       1  UNL1        0.0649
     42 H         -26.9600   -8.5230   50.2540 H       1  UNL1        0.0649
     43 N         -27.1280   -3.3900   52.0750 N.am    1  UNL1       -0.2995
     44 C         -26.3160   -2.2950   52.6260 C.3     1  UNL1        0.1366
     45 C         -25.8790   -2.7810   54.0110 C.2     1  UNL1        0.2402
     46 O         -26.6960   -3.3470   54.7470 O.2     1  UNL1       -0.2734
     47 C         -27.1600   -1.0100   52.6660 C.3     1  UNL1        0.1270
     48 O         -27.0840   -0.4590   51.3310 O.3     1  UNL1       -0.4580
     49 C         -26.6490    0.0830   53.5960 C.3     1  UNL1       -0.0254
     50 H         -27.8870   -3.7110   52.6670 H       1  UNL1        0.1496
     51 H         -25.4530   -2.1550   51.9720 H       1  UNL1        0.0632
     52 H         -28.1940   -1.2430   52.9500 H       1  UNL1        0.0755
     53 H         -25.6710    0.4550   53.2780 H       1  UNL1        0.0266
     54 H         -27.3230    0.9460   53.5570 H       1  UNL1        0.0266
     55 H         -26.5920   -0.2510   54.6360 H       1  UNL1        0.0266
     56 N         -24.5700   -2.5960   54.3950 N.am    1  UNL1       -0.2883
     57 C         -23.5190   -1.8110   53.7240 C.3     1  UNL1        0.1025
     58 C         -22.9180   -2.5050   52.4750 C.2     1  UNL1        0.2367
     59 O         -23.0800   -3.7150   52.3040 O.2     1  UNL1       -0.2735
     60 C         -22.4540   -1.6450   54.8140 C.3     1  UNL1       -0.0243
     61 C         -22.5980   -2.9160   55.6440 C.3     1  UNL1       -0.0350
     62 C         -24.0970   -3.1490   55.6520 C.3     1  UNL1        0.0156
     63 H         -23.9470   -0.8560   53.4190 H       1  UNL1        0.0597
     64 H         -21.4360   -1.5280   54.4380 H       1  UNL1        0.0288
     65 H         -22.6930   -0.7740   55.4360 H       1  UNL1        0.0288
     66 H         -22.0890   -3.7480   55.1420 H       1  UNL1        0.0281
     67 H         -22.1810   -2.8180   56.6500 H       1  UNL1        0.0281
     68 H         -24.3620   -4.2080   55.7360 H       1  UNL1        0.0465
     69 H         -24.5830   -2.5990   56.4670 H       1  UNL1        0.0465
     70 N         -22.1950   -1.7270   51.5690 N.am    1  UNL1       -0.2884
     71 O         -21.7100    1.7110   50.4160 O.2     1  UNL1       -0.2738
     72 C         -21.7850   -0.3170   51.7610 C.3     1  UNL1        0.1025
     73 C         -22.2990    0.6620   50.6740 C.2     1  UNL1        0.2342
     74 C         -20.2530   -0.2420   51.8920 C.3     1  UNL1       -0.0231
     75 C         -19.5420   -0.9220   50.7090 C.3     1  UNL1       -0.0403
     76 C         -18.0280   -0.9070   50.9110 C.3     1  UNL1       -0.0623
     77 C         -20.0590   -2.3580   50.5300 C.3     1  UNL1       -0.0345
     78 C         -21.5820   -2.3880   50.4140 C.3     1  UNL1        0.0158
     79 H         -22.2090    0.0680   52.6910 H       1  UNL1        0.0597
     80 H         -19.9500   -0.7400   52.8220 H       1  UNL1        0.0290
     81 H         -19.9220    0.8000   51.9760 H       1  UNL1        0.0290
     82 H         -19.7630   -0.3580   49.7930 H       1  UNL1        0.0299
     83 H         -17.7400   -1.4570   51.8130 H       1  UNL1        0.0232
     84 H         -17.5180   -1.3650   50.0570 H       1  UNL1        0.0232
     85 H         -17.6600    0.1200   51.0090 H       1  UNL1        0.0232
     86 H         -19.7500   -2.9700   51.3870 H       1  UNL1        0.0283
     87 H         -19.6140   -2.8080   49.6340 H       1  UNL1        0.0283
     88 H         -21.9220   -3.4230   50.3180 H       1  UNL1        0.0465
     89 H         -21.9050   -1.8620   49.5080 H       1  UNL1        0.0465
     90 N         -23.5400    0.3760   50.1460 N.am    1  UNL1       -0.3027
     91 C         -24.1890    1.2990   49.2130 C.3     1  UNL1        0.0968
     92 C         -25.7230    1.2860   49.3950 C.2     1  UNL1        0.2363
     93 O         -26.2500    2.1340   50.1250 O.2     1  UNL1       -0.2736
     94 C         -23.6780    1.1300   47.7890 C.3     1  UNL1       -0.0381
     95 H         -24.0010   -0.4950   50.3880 H       1  UNL1        0.1495
     96 H         -23.8980    2.3160   49.5130 H       1  UNL1        0.0592
     97 H         -22.6660    1.5430   47.6980 H       1  UNL1        0.0252
     98 H         -24.3180    1.6520   47.0710 H       1  UNL1        0.0252
     99 H         -23.6020    0.0780   47.4980 H       1  UNL1        0.0252
    100 N         -26.4840    0.2650   48.8710 N.am    1  UNL1       -0.2865
    101 C         -27.9220    0.1900   49.1790 C.3     1  UNL1        0.1230
    102 C         -28.2180   -0.3760   50.5850 C.2     1  UNL1        0.3282
    103 O         -29.3340   -0.6910   50.9790 O.2     1  UNL1       -0.2487
    104 C         -28.4730   -0.7270   48.0900 C.3     1  UNL1       -0.0225
    105 C         -27.3220   -1.6930   47.8380 C.3     1  UNL1       -0.0349
    106 C         -26.0830   -0.8190   47.9890 C.3     1  UNL1        0.0157
    107 H         -28.3640    1.1910   49.1350 H       1  UNL1        0.0616
    108 H         -29.3940   -1.2480   48.3670 H       1  UNL1        0.0289
    109 H         -28.6670   -0.1480   47.1780 H       1  UNL1        0.0289
    110 H         -27.3320   -2.4760   48.5990 H       1  UNL1        0.0281
    111 H         -27.3760   -2.1760   46.8590 H       1  UNL1        0.0281
    112 H         -25.2320   -1.3650   48.4040 H       1  UNL1        0.0465
    113 H         -25.8070   -0.3860   47.0230 H       1  UNL1        0.0465
@<TRIPOS>BOND
     1    21    10    1
     2    18     9    1
     3    19     9    1
     4    10    22    1
     5    10     9    1
     6    10    20    1
     7     9     7    1
     8    17     8    1
     9    13     6    1
    10    15     8    1
    11     7     8    1
    12     7     6    1
    13     7    14    1
    14     8    16    1
    15    12     6    1
    16     6     5    1
    17     5    11    1
    18     5     4    2
    19   111   105    1
    20     1     4    1
    21   113   106    1
    22    98    94    1
    23     4     3    1
    24   109   104    1
    25    99    94    1
    26    97    94    1
    27    94    91    1
    28   105   106    1
    29   105   104    1
    30   105   110    1
    31   106   112    1
    32   106   100    1
    33   104   108    1
    34   104   101    1
    35     3     2    2
    36     3    24   am
    37   100   101    1
    38   100    92   am
    39    36    24    1
    40   107   101    1
    41   101   102    1
    42    91    92    1
    43    91    96    1
    44    91    90    1
    45    24    28    1
    46    92    93    2
    47    89    78    1
    48    87    77    1
    49    82    75    1
    50    84    76    1
    51    90    95    1
    52    90    73   am
    53    25    23    2
    54    42    33    1
    55    88    78    1
    56    78    77    1
    57    78    70    1
    58    71    73    2
    59    27    35    1
    60    37    28    1
    61    77    75    1
    62    77    86    1
    63    28    23    1
    64    28    29    1
    65   102   103    2
    66   102    48    1
    67    73    72    1
    68    75    76    1
    69    75    74    1
    70    76    85    1
    71    76    83    1
    72    23    43   am
    73    33    35   ar
    74    33    30   ar
    75    35    31   ar
    76    48    47    1
    77    39    29    1
    78    70    72    1
    79    70    58   am
    80    29    30    1
    81    29    38    1
    82    72    74    1
    83    72    79    1
    84    30    32   ar
    85    74    81    1
    86    74    80    1
    87    51    44    1
    88    43    44    1
    89    43    50    1
    90    31    40    1
    91    31    34   ar
    92    59    58    2
    93    58    57    1
    94    44    47    1
    95    44    45    1
    96    47    52    1
    97    47    49    1
    98    32    34   ar
    99    32    41    1
   100    34    26    1
   101    53    49    1
   102    63    57    1
   103    54    49    1
   104    49    55    1
   105    57    56    1
   106    57    60    1
   107    45    56   am
   108    45    46    2
   109    56    62    1
   110    64    60    1
   111    60    65    1
   112    60    61    1
   113    66    61    1
   114    61    62    1
   115    61    67    1
   116    62    68    1
   117    62    69    1
