@<TRIPOS>MOLECULE
123.07203
 113 117 0 0 0
SMALL
GASTEIGER

@<TRIPOS>ATOM
      1 H         -31.5800   -2.4480   50.2630 H       1  UNL1        0.0666
      2 O         -30.3480   -4.1440   52.8350 O.2     1  UNL1       -0.2708
      3 C         -30.4350   -3.6660   51.7110 C.2     1  UNL1        0.2372
      4 C         -31.6290   -2.9280   51.2330 C.2     1  UNL1       -0.0038
      5 C         -32.7400   -2.8670   51.9820 C.2     1  UNL1       -0.0789
      6 C         -33.9770   -2.1160   51.5780 C.3     1  UNL1       -0.0317
      7 C         -35.2270   -2.9930   51.3560 C.3     1  UNL1       -0.0407
      8 C         -35.0390   -3.9290   50.1560 C.3     1  UNL1       -0.0621
      9 C         -35.6640   -3.8080   52.5890 C.3     1  UNL1       -0.0530
     10 C         -35.9610   -2.9530   53.8130 C.3     1  UNL1       -0.0650
     11 H         -32.7600   -3.3490   52.9580 H       1  UNL1        0.0574
     12 H         -33.7850   -1.5430   50.6610 H       1  UNL1        0.0310
     13 H         -34.1870   -1.3640   52.3480 H       1  UNL1        0.0310
     14 H         -36.0510   -2.3110   51.1030 H       1  UNL1        0.0301
     15 H         -35.9720   -4.4550   49.9280 H       1  UNL1        0.0233
     16 H         -34.7490   -3.3650   49.2630 H       1  UNL1        0.0233
     17 H         -34.2700   -4.6850   50.3480 H       1  UNL1        0.0233
     18 H         -34.9050   -4.5550   52.8470 H       1  UNL1        0.0265
     19 H         -36.5730   -4.3680   52.3370 H       1  UNL1        0.0265
     20 H         -36.6910   -2.1720   53.5800 H       1  UNL1        0.0230
     21 H         -36.3760   -3.5750   54.6130 H       1  UNL1        0.0230
     22 H         -35.0560   -2.4780   54.2030 H       1  UNL1        0.0230
     23 C         -27.0220   -4.1430   51.2480 C.2     1  UNL1        0.2344
     24 N         -29.4600   -3.7740   50.7560 N.am    1  UNL1       -0.3002
     25 O         -25.9750   -4.7730   51.1040 O.2     1  UNL1       -0.2737
     26 F         -31.0260   -7.1850   45.9170 F       1  UNL1       -0.2054
     27 F         -32.3060   -8.2370   50.3220 F       1  UNL1       -0.2054
     28 C         -28.3820   -4.7550   50.8740 C.3     1  UNL1        0.1036
     29 C         -28.2290   -5.5860   49.5830 C.3     1  UNL1       -0.0005
     30 C         -29.4690   -6.3090   49.0940 C.ar    1  UNL1       -0.0397
     31 C         -31.7060   -7.7210   48.1060 C.ar    1  UNL1        0.0088
     32 C         -29.7070   -6.4100   47.7140 C.ar    1  UNL1       -0.0230
     33 C         -30.3590   -6.9500   49.9690 C.ar    1  UNL1       -0.0230
     34 C         -30.8180   -7.1060   47.2380 C.ar    1  UNL1        0.1264
     35 C         -31.4650   -7.6380   49.4690 C.ar    1  UNL1        0.1264
     36 H         -29.5200   -3.2170   49.9110 H       1  UNL1        0.1498
     37 H         -28.6220   -5.4300   51.7050 H       1  UNL1        0.0598
     38 H         -27.8760   -4.9150   48.7870 H       1  UNL1        0.0336
     39 H         -27.4450   -6.3440   49.7150 H       1  UNL1        0.0336
     40 H         -32.5640   -8.2630   47.7280 H       1  UNL1        0.0675
     41 H         -29.0310   -5.9580   46.9930 H       1  UNL1        0.0649
     42 H         -30.2140   -6.9340   51.0460 H       1  UNL1        0.0649
     43 N         -27.0590   -2.9340   51.9140 N.am    1  UNL1       -0.2995
     44 C         -25.8160   -2.3730   52.4540 C.3     1  UNL1        0.1366
     45 C         -25.3220   -3.1970   53.6710 C.2     1  UNL1        0.2402
     46 O         -24.1100   -3.4230   53.7810 O.2     1  UNL1       -0.2734
     47 C         -25.8970   -0.8900   52.8550 C.3     1  UNL1        0.1270
     48 O         -26.8280   -0.1280   52.0560 O.3     1  UNL1       -0.4580
     49 C         -24.5350   -0.1990   52.9440 C.3     1  UNL1       -0.0254
     50 H         -27.9210   -2.3980   51.8960 H       1  UNL1        0.1496
     51 H         -25.0640   -2.4900   51.6630 H       1  UNL1        0.0632
     52 H         -26.3240   -0.8130   53.8520 H       1  UNL1        0.0755
     53 H         -23.9670   -0.2920   52.0140 H       1  UNL1        0.0266
     54 H         -24.6610    0.8720   53.1380 H       1  UNL1        0.0266
     55 H         -23.9280   -0.6260   53.7480 H       1  UNL1        0.0266
     56 N         -26.1870   -3.5720   54.6840 N.am    1  UNL1       -0.2883
     57 C         -27.5900   -3.1910   54.9600 C.3     1  UNL1        0.1025
     58 C         -27.6640   -1.8410   55.7370 C.2     1  UNL1        0.2367
     59 O         -26.6390   -1.3500   56.2230 O.2     1  UNL1       -0.2735
     60 C         -28.0770   -4.3420   55.8420 C.3     1  UNL1       -0.0243
     61 C         -26.8470   -4.6850   56.6750 C.3     1  UNL1       -0.0350
     62 C         -25.6950   -4.4870   55.7030 C.3     1  UNL1        0.0156
     63 H         -28.1610   -3.0990   54.0400 H       1  UNL1        0.0597
     64 H         -28.9300   -4.1000   56.4780 H       1  UNL1        0.0288
     65 H         -28.3470   -5.2010   55.2160 H       1  UNL1        0.0288
     66 H         -26.7550   -3.9870   57.5150 H       1  UNL1        0.0281
     67 H         -26.8800   -5.6990   57.0830 H       1  UNL1        0.0281
     68 H         -24.8060   -4.0770   56.1940 H       1  UNL1        0.0465
     69 H         -25.4200   -5.4270   55.2120 H       1  UNL1        0.0465
     70 N         -28.8830   -1.1800   55.8660 N.am    1  UNL1       -0.2884
     71 O         -32.1890   -0.7620   54.3970 O.2     1  UNL1       -0.2738
     72 C         -30.2130   -1.7070   55.4840 C.3     1  UNL1        0.1025
     73 C         -30.9630   -0.8060   54.4680 C.2     1  UNL1        0.2342
     74 C         -31.0580   -1.9420   56.7490 C.3     1  UNL1       -0.0231
     75 C         -31.1280   -0.6880   57.6400 C.3     1  UNL1       -0.0403
     76 C         -31.8810   -0.9840   58.9360 C.3     1  UNL1       -0.0623
     77 C         -29.7160   -0.1630   57.9420 C.3     1  UNL1       -0.0345
     78 C         -28.9260    0.0560   56.6550 C.3     1  UNL1        0.0158
     79 H         -30.0930   -2.6660   54.9770 H       1  UNL1        0.0597
     80 H         -30.6120   -2.7610   57.3280 H       1  UNL1        0.0290
     81 H         -32.0710   -2.2650   56.4820 H       1  UNL1        0.0290
     82 H         -31.6800    0.0950   57.1040 H       1  UNL1        0.0299
     83 H         -31.3760   -1.7590   59.5230 H       1  UNL1        0.0232
     84 H         -31.9550   -0.0850   59.5560 H       1  UNL1        0.0232
     85 H         -32.8980   -1.3300   58.7220 H       1  UNL1        0.0232
     86 H         -29.1810   -0.8810   58.5770 H       1  UNL1        0.0283
     87 H         -29.7760    0.7790   58.5000 H       1  UNL1        0.0283
     88 H         -27.9220    0.4140   56.9000 H       1  UNL1        0.0465
     89 H         -29.3980    0.8370   56.0470 H       1  UNL1        0.0465
     90 N         -30.1560   -0.1810   53.5400 N.am    1  UNL1       -0.3027
     91 C         -30.7120    0.5090   52.3780 C.3     1  UNL1        0.0968
     92 C         -29.6740    0.4250   51.2370 C.2     1  UNL1        0.2363
     93 O         -29.5980   -0.6180   50.5690 O.2     1  UNL1       -0.2736
     94 C         -31.3070    1.8660   52.7180 C.3     1  UNL1       -0.0381
     95 H         -29.1500   -0.2440   53.6520 H       1  UNL1        0.1495
     96 H         -31.5560   -0.0930   52.0190 H       1  UNL1        0.0592
     97 H         -32.2580    1.7410   53.2490 H       1  UNL1        0.0252
     98 H         -31.5100    2.4490   51.8140 H       1  UNL1        0.0252
     99 H         -30.6670    2.4500   53.3840 H       1  UNL1        0.0252
    100 N         -28.6940    1.3780   51.0940 N.am    1  UNL1       -0.2865
    101 C         -27.5820    1.1280   50.1650 C.3     1  UNL1        0.1230
    102 C         -26.5590    0.1280   50.7430 C.2     1  UNL1        0.3282
    103 O         -25.5960   -0.3020   50.1260 O.2     1  UNL1       -0.2487
    104 C         -26.9400    2.5020   49.9970 C.3     1  UNL1       -0.0225
    105 C         -27.1380    3.1420   51.3670 C.3     1  UNL1       -0.0349
    106 C         -28.5050    2.6320   51.8070 C.3     1  UNL1        0.0157
    107 H         -27.9610    0.7160   49.2230 H       1  UNL1        0.0616
    108 H         -25.8860    2.4670   49.7060 H       1  UNL1        0.0289
    109 H         -27.4880    3.0800   49.2430 H       1  UNL1        0.0289
    110 H         -26.3650    2.7880   52.0600 H       1  UNL1        0.0281
    111 H         -27.0880    4.2340   51.3390 H       1  UNL1        0.0281
    112 H         -28.5440    2.4710   52.8870 H       1  UNL1        0.0465
    113 H         -29.2960    3.3230   51.5010 H       1  UNL1        0.0465
@<TRIPOS>BOND
     1    26    34    1
     2    41    32    1
     3    34    32   ar
     4    34    31   ar
     5    32    30   ar
     6    40    31    1
     7    31    35   ar
     8    38    29    1
     9    30    29    1
    10    30    33   ar
    11   107   101    1
    12   109   104    1
    13    16     8    1
    14    35    33   ar
    15    35    27    1
    16    29    39    1
    17    29    28    1
    18   108   104    1
    19    36    24    1
    20    15     8    1
    21    33    42    1
    22   104   101    1
    23   104   105    1
    24   103   102    2
    25     8    17    1
    26     8     7    1
    27   101   102    1
    28   101   100    1
    29     1     4    1
    30    93    92    2
    31    12     6    1
    32   102    48    1
    33    24    28    1
    34    24     3   am
    35    28    23    1
    36    28    37    1
    37   100    92   am
    38   100   106    1
    39    14     7    1
    40    25    23    2
    41     4     3    1
    42     4     5    2
    43    92    91    1
    44    23    43   am
    45   111   105    1
    46     7     6    1
    47     7     9    1
    48   105   106    1
    49   105   110    1
    50   113   106    1
    51     6     5    1
    52     6    13    1
    53    51    44    1
    54     3     2    2
    55   106   112    1
    56    98    94    1
    57    50    43    1
    58    43    44    1
    59     5    11    1
    60    53    49    1
    61    96    91    1
    62    48    47    1
    63    19     9    1
    64    91    94    1
    65    91    90    1
    66    44    47    1
    67    44    45    1
    68     9    18    1
    69     9    10    1
    70    94    97    1
    71    94    99    1
    72    47    49    1
    73    47    52    1
    74    49    54    1
    75    49    55    1
    76    90    95    1
    77    90    73   am
    78    20    10    1
    79    45    46    2
    80    45    56   am
    81    10    22    1
    82    10    21    1
    83    63    57    1
    84    71    73    2
    85    73    72    1
    86    56    57    1
    87    56    62    1
    88    57    58    1
    89    57    60    1
    90    79    72    1
    91    69    62    1
    92    65    60    1
    93    72    70    1
    94    72    74    1
    95    62    68    1
    96    62    61    1
    97    58    70   am
    98    58    59    2
    99    60    64    1
   100    60    61    1
   101    70    78    1
   102    89    78    1
   103    81    74    1
   104    78    88    1
   105    78    77    1
   106    61    67    1
   107    61    66    1
   108    74    80    1
   109    74    75    1
   110    82    75    1
   111    75    77    1
   112    75    76    1
   113    77    87    1
   114    77    86    1
   115    85    76    1
   116    76    83    1
   117    76    84    1
