@<TRIPOS>MOLECULE
111.28567
 113 117 0 0 0
SMALL
GASTEIGER

@<TRIPOS>ATOM
      1 H         -28.8920   -6.1060   46.1140 H       1  UNL1        0.0666
      2 O         -30.9860   -5.7780   48.6670 O.2     1  UNL1       -0.2708
      3 C         -29.9330   -5.8840   48.0530 C.2     1  UNL1        0.2372
      4 C         -29.8670   -5.9890   46.5730 C.2     1  UNL1       -0.0038
      5 C         -30.9830   -5.9310   45.8320 C.2     1  UNL1       -0.0789
      6 C         -30.9910   -6.0300   44.3320 C.3     1  UNL1       -0.0317
      7 C         -31.5350   -4.7620   43.6410 C.3     1  UNL1       -0.0407
      8 C         -30.6860   -3.5290   43.9810 C.3     1  UNL1       -0.0621
      9 C         -31.5870   -4.9250   42.1070 C.3     1  UNL1       -0.0530
     10 C         -32.5450   -6.0090   41.6350 C.3     1  UNL1       -0.0650
     11 H         -31.9500   -5.8170   46.3200 H       1  UNL1        0.0574
     12 H         -31.6140   -6.8930   44.0750 H       1  UNL1        0.0310
     13 H         -29.9840   -6.2490   43.9550 H       1  UNL1        0.0310
     14 H         -32.5560   -4.5730   44.0000 H       1  UNL1        0.0301
     15 H         -31.0600   -2.6420   43.4570 H       1  UNL1        0.0233
     16 H         -30.7160   -3.3050   45.0530 H       1  UNL1        0.0233
     17 H         -29.6400   -3.6760   43.6920 H       1  UNL1        0.0233
     18 H         -30.5840   -5.1370   41.7170 H       1  UNL1        0.0265
     19 H         -31.9050   -3.9760   41.6570 H       1  UNL1        0.0265
     20 H         -33.5450   -5.8600   42.0530 H       1  UNL1        0.0230
     21 H         -32.6280   -5.9850   40.5430 H       1  UNL1        0.0230
     22 H         -32.1950   -7.0070   41.9130 H       1  UNL1        0.0230
     23 C         -27.2720   -4.9320   50.3110 C.2     1  UNL1        0.2344
     24 N         -28.6970   -5.8880   48.6390 N.am    1  UNL1       -0.3002
     25 O         -26.2650   -5.0500   49.6110 O.2     1  UNL1       -0.2737
     26 F         -30.9130  -10.8010   48.8280 F       1  UNL1       -0.2054
     27 F         -32.5700   -8.5550   52.6220 F       1  UNL1       -0.2054
     28 C         -28.5190   -5.7920   50.0860 C.3     1  UNL1        0.1036
     29 C         -28.2750   -7.1580   50.7470 C.3     1  UNL1       -0.0005
     30 C         -29.4890   -8.0570   50.7490 C.ar    1  UNL1       -0.0397
     31 C         -31.7750   -9.7000   50.7230 C.ar    1  UNL1        0.0088
     32 C         -29.6440   -9.0500   49.7720 C.ar    1  UNL1       -0.0230
     33 C         -30.4940   -7.8980   51.7140 C.ar    1  UNL1       -0.0230
     34 C         -30.7810   -9.8560   49.7690 C.ar    1  UNL1        0.1264
     35 C         -31.6210   -8.7180   51.6900 C.ar    1  UNL1        0.1264
     36 H         -27.8600   -5.8440   48.0560 H       1  UNL1        0.1498
     37 H         -29.3900   -5.2930   50.5250 H       1  UNL1        0.0598
     38 H         -27.4420   -7.6750   50.2520 H       1  UNL1        0.0336
     39 H         -27.9520   -7.0180   51.7870 H       1  UNL1        0.0336
     40 H         -32.6550  -10.3300   50.7120 H       1  UNL1        0.0675
     41 H         -28.8940   -9.1980   49.0000 H       1  UNL1        0.0649
     42 H         -30.4170   -7.1380   52.4860 H       1  UNL1        0.0649
     43 N         -27.3380   -4.0370   51.3490 N.am    1  UNL1       -0.2995
     44 C         -26.1770   -3.2290   51.7420 C.3     1  UNL1        0.1366
     45 C         -25.8700   -3.6010   53.1980 C.2     1  UNL1        0.2402
     46 O         -26.6740   -3.3180   54.0910 O.2     1  UNL1       -0.2734
     47 C         -26.4610   -1.7200   51.5830 C.3     1  UNL1        0.1270
     48 O         -26.6170   -1.3650   50.1770 O.3     1  UNL1       -0.4580
     49 C         -25.4380   -0.8000   52.2530 C.3     1  UNL1       -0.0254
     50 H         -28.1460   -4.0250   51.9640 H       1  UNL1        0.1496
     51 H         -25.3500   -3.5110   51.1000 H       1  UNL1        0.0632
     52 H         -27.4360   -1.4960   52.0330 H       1  UNL1        0.0755
     53 H         -24.4110   -1.0610   51.9800 H       1  UNL1        0.0266
     54 H         -25.6000    0.2390   51.9480 H       1  UNL1        0.0266
     55 H         -25.5130   -0.8530   53.3430 H       1  UNL1        0.0266
     56 N         -24.7280   -4.3310   53.4490 N.am    1  UNL1       -0.2883
     57 C         -23.7010   -4.7500   52.4810 C.3     1  UNL1        0.1025
     58 C         -24.1610   -5.9640   51.6250 C.2     1  UNL1        0.2367
     59 O         -25.0890   -6.6790   52.0190 O.2     1  UNL1       -0.2735
     60 C         -22.5190   -5.1510   53.3680 C.3     1  UNL1       -0.0243
     61 C         -23.1940   -5.6750   54.6330 C.3     1  UNL1       -0.0350
     62 C         -24.3950   -4.7570   54.7950 C.3     1  UNL1        0.0156
     63 H         -23.4570   -3.8970   51.8450 H       1  UNL1        0.0597
     64 H         -21.8560   -5.8960   52.9200 H       1  UNL1        0.0288
     65 H         -21.9230   -4.2640   53.6150 H       1  UNL1        0.0288
     66 H         -23.5270   -6.7080   54.4770 H       1  UNL1        0.0281
     67 H         -22.5340   -5.6600   55.5050 H       1  UNL1        0.0281
     68 H         -25.2470   -5.2520   55.2700 H       1  UNL1        0.0465
     69 H         -24.1400   -3.8630   55.3760 H       1  UNL1        0.0465
     70 N         -23.4650   -6.2570   50.4530 N.am    1  UNL1       -0.2884
     71 O         -21.8080   -4.0750   47.9490 O.2     1  UNL1       -0.2738
     72 C         -22.3680   -5.4510   49.8730 C.3     1  UNL1        0.1025
     73 C         -22.6940   -4.6550   48.5780 C.2     1  UNL1        0.2342
     74 C         -21.1280   -6.3390   49.6570 C.3     1  UNL1       -0.0231
     75 C         -21.4590   -7.5960   48.8380 C.3     1  UNL1       -0.0403
     76 C         -20.2270   -8.4870   48.6900 C.3     1  UNL1       -0.0623
     77 C         -22.6090   -8.3650   49.5010 C.3     1  UNL1       -0.0345
     78 C         -23.8250   -7.4670   49.7060 C.3     1  UNL1        0.0158
     79 H         -22.0720   -4.6780   50.5860 H       1  UNL1        0.0597
     80 H         -20.7390   -6.6430   50.6380 H       1  UNL1        0.0290
     81 H         -20.3270   -5.7750   49.1640 H       1  UNL1        0.0290
     82 H         -21.7760   -7.2910   47.8320 H       1  UNL1        0.0299
     83 H         -19.8610   -8.8270   49.6650 H       1  UNL1        0.0232
     84 H         -20.4580   -9.3710   48.0880 H       1  UNL1        0.0232
     85 H         -19.4150   -7.9450   48.1930 H       1  UNL1        0.0232
     86 H         -22.2810   -8.7570   50.4730 H       1  UNL1        0.0283
     87 H         -22.8910   -9.2270   48.8850 H       1  UNL1        0.0283
     88 H         -24.6070   -8.0350   50.2200 H       1  UNL1        0.0465
     89 H         -24.2380   -7.1690   48.7370 H       1  UNL1        0.0465
     90 N         -24.0120   -4.5880   48.2020 N.am    1  UNL1       -0.3027
     91 C         -24.4440   -3.8870   46.9970 C.3     1  UNL1        0.0968
     92 C         -25.9890   -3.7910   46.9510 C.2     1  UNL1        0.2363
     93 O         -26.6740   -4.7760   46.6470 O.2     1  UNL1       -0.2736
     94 C         -23.9790   -4.6270   45.7390 C.3     1  UNL1       -0.0381
     95 H         -24.7360   -4.9680   48.8200 H       1  UNL1        0.1495
     96 H         -23.9870   -2.8960   46.9960 H       1  UNL1        0.0592
     97 H         -22.8880   -4.6370   45.6590 H       1  UNL1        0.0252
     98 H         -24.3760   -4.1470   44.8370 H       1  UNL1        0.0252
     99 H         -24.3160   -5.6700   45.7410 H       1  UNL1        0.0252
    100 N         -26.6000   -2.6110   47.3290 N.am    1  UNL1       -0.2865
    101 C         -25.9890   -1.3840   47.8500 C.3     1  UNL1        0.1230
    102 C         -25.5720   -1.5460   49.3220 C.2     1  UNL1        0.3282
    103 O         -24.4540   -1.9100   49.6670 O.2     1  UNL1       -0.2487
    104 C         -27.0580   -0.3110   47.6260 C.3     1  UNL1       -0.0225
    105 C         -28.3730   -1.0780   47.7130 C.3     1  UNL1       -0.0349
    106 C         -28.0340   -2.4450   47.1450 C.3     1  UNL1        0.0157
    107 H         -25.0910   -1.1250   47.2820 H       1  UNL1        0.0616
    108 H         -27.0090    0.5190   48.3370 H       1  UNL1        0.0289
    109 H         -26.9540    0.1030   46.6150 H       1  UNL1        0.0289
    110 H         -28.6960   -1.1730   48.7550 H       1  UNL1        0.0281
    111 H         -29.1830   -0.5890   47.1630 H       1  UNL1        0.0281
    112 H         -28.5830   -3.2460   47.6450 H       1  UNL1        0.0465
    113 H         -28.2440   -2.4960   46.0700 H       1  UNL1        0.0465
@<TRIPOS>BOND
     1    21    10    1
     2    10    22    1
     3    10    20    1
     4    10     9    1
     5    19     9    1
     6    18     9    1
     7     9     7    1
     8    15     8    1
     9     7     8    1
    10     7    14    1
    11     7     6    1
    12    17     8    1
    13    13     6    1
    14     8    16    1
    15    12     6    1
    16     6     5    1
    17    98    94    1
    18    97    94    1
    19    94    99    1
    20    94    91    1
    21     5    11    1
    22     5     4    2
    23   113   106    1
    24     1     4    1
    25     4     3    1
    26   109   104    1
    27    93    92    2
    28    92    91    1
    29    92   100   am
    30    96    91    1
    31    91    90    1
    32   106   100    1
    33   106   112    1
    34   106   105    1
    35   111   105    1
    36   107   101    1
    37   100   101    1
    38   104   105    1
    39   104   101    1
    40   104   108    1
    41   105   110    1
    42    82    75    1
    43   101   102    1
    44    71    73    2
    45     3    24   am
    46     3     2    2
    47    36    24    1
    48    84    76    1
    49    85    76    1
    50    90    73   am
    51    90    95    1
    52    73    72    1
    53    24    28    1
    54    76    75    1
    55    76    83    1
    56    89    78    1
    57    26    34    1
    58    75    77    1
    59    75    74    1
    60    87    77    1
    61    41    32    1
    62    81    74    1
    63   102   103    2
    64   102    48    1
    65    77    78    1
    66    77    86    1
    67    25    23    2
    68    74    72    1
    69    74    80    1
    70    78    88    1
    71    78    70    1
    72    34    32   ar
    73    34    31   ar
    74    32    30   ar
    75    72    70    1
    76    72    79    1
    77    28    23    1
    78    28    37    1
    79    28    29    1
    80    48    47    1
    81    38    29    1
    82    23    43   am
    83    70    58   am
    84    40    31    1
    85    31    35   ar
    86    29    30    1
    87    29    39    1
    88    30    33   ar
    89    51    44    1
    90    43    44    1
    91    43    50    1
    92    47    44    1
    93    47    52    1
    94    47    49    1
    95    58    59    2
    96    58    57    1
    97    35    33   ar
    98    35    27    1
    99    33    42    1
   100    44    45    1
   101    63    57    1
   102    54    49    1
   103    53    49    1
   104    49    55    1
   105    57    60    1
   106    57    56    1
   107    64    60    1
   108    45    56   am
   109    45    46    2
   110    60    65    1
   111    60    61    1
   112    56    62    1
   113    66    61    1
   114    61    62    1
   115    61    67    1
   116    62    68    1
   117    62    69    1
