@<TRIPOS>MOLECULE
113.99184
 113 117 0 0 0
SMALL
GASTEIGER

@<TRIPOS>ATOM
      1 H         -32.0290   -3.9100   49.2280 H       1  UNL1        0.0666
      2 O         -30.2870   -4.2790   52.0290 O.2     1  UNL1       -0.2708
      3 C         -30.6250   -4.4240   50.8610 C.2     1  UNL1        0.2372
      4 C         -31.7230   -3.6510   50.2330 C.2     1  UNL1       -0.0038
      5 C         -32.3110   -2.6520   50.9100 C.2     1  UNL1       -0.0789
      6 C         -33.4040   -1.7830   50.3520 C.3     1  UNL1       -0.0317
      7 C         -34.7970   -2.0650   50.9520 C.3     1  UNL1       -0.0407
      8 C         -34.8100   -1.9030   52.4780 C.3     1  UNL1       -0.0621
      9 C         -35.8760   -1.1410   50.3460 C.3     1  UNL1       -0.0530
     10 C         -36.0770   -1.3230   48.8480 C.3     1  UNL1       -0.0650
     11 H         -31.9740   -2.4180   51.9200 H       1  UNL1        0.0574
     12 H         -33.4360   -1.9130   49.2640 H       1  UNL1        0.0310
     13 H         -33.1280   -0.7350   50.5260 H       1  UNL1        0.0310
     14 H         -35.0710   -3.1040   50.7260 H       1  UNL1        0.0301
     15 H         -35.8180   -2.0600   52.8770 H       1  UNL1        0.0233
     16 H         -34.1570   -2.6340   52.9640 H       1  UNL1        0.0233
     17 H         -34.4820   -0.9000   52.7720 H       1  UNL1        0.0233
     18 H         -35.6280   -0.0920   50.5490 H       1  UNL1        0.0265
     19 H         -36.8350   -1.3390   50.8400 H       1  UNL1        0.0265
     20 H         -36.2610   -2.3730   48.5990 H       1  UNL1        0.0230
     21 H         -36.9410   -0.7390   48.5140 H       1  UNL1        0.0230
     22 H         -35.2100   -0.9760   48.2790 H       1  UNL1        0.0230
     23 C         -27.5820   -5.2110   50.3960 C.2     1  UNL1        0.2344
     24 N         -29.9870   -5.2640   49.9890 N.am    1  UNL1       -0.3002
     25 O         -26.6720   -5.3640   49.5830 O.2     1  UNL1       -0.2737
     26 F         -32.5600   -9.2300   47.2780 F       1  UNL1       -0.2054
     27 F         -31.4520  -10.7090   51.6090 F       1  UNL1       -0.2054
     28 C         -28.8490   -6.0870   50.4130 C.3     1  UNL1        0.1036
     29 C         -28.6500   -7.3030   49.4920 C.3     1  UNL1       -0.0005
     30 C         -29.8290   -8.2480   49.4750 C.ar    1  UNL1       -0.0397
     31 C         -32.0390   -9.9940   49.4440 C.ar    1  UNL1        0.0088
     32 C         -30.6710   -8.3170   48.3550 C.ar    1  UNL1       -0.0230
     33 C         -30.1060   -9.0690   50.5770 C.ar    1  UNL1       -0.0230
     34 C         -31.7630   -9.1830   48.3540 C.ar    1  UNL1        0.1264
     35 C         -31.2020   -9.9290   50.5490 C.ar    1  UNL1        0.1264
     36 H         -30.2460   -5.2860   49.0140 H       1  UNL1        0.1498
     37 H         -29.0190   -6.4160   51.4460 H       1  UNL1        0.0598
     38 H         -28.4430   -6.9680   48.4660 H       1  UNL1        0.0336
     39 H         -27.7590   -7.8670   49.8010 H       1  UNL1        0.0336
     40 H         -32.8890  -10.6650   49.4340 H       1  UNL1        0.0675
     41 H         -30.4870   -7.7080   47.4740 H       1  UNL1        0.0649
     42 H         -29.4760   -9.0520   51.4630 H       1  UNL1        0.0649
     43 N         -27.5500   -4.2230   51.3510 N.am    1  UNL1       -0.2995
     44 C         -26.4060   -3.3300   51.5140 C.3     1  UNL1        0.1366
     45 C         -25.9230   -3.4840   52.9620 C.2     1  UNL1        0.2402
     46 O         -26.6250   -3.1050   53.9020 O.2     1  UNL1       -0.2734
     47 C         -26.7520   -1.8750   51.1450 C.3     1  UNL1        0.1270
     48 O         -27.0510   -1.9150   49.7220 O.3     1  UNL1       -0.4580
     49 C         -25.5510   -0.9560   51.3860 C.3     1  UNL1       -0.0254
     50 H         -28.3320   -4.1440   52.0070 H       1  UNL1        0.1496
     51 H         -25.6360   -3.6570   50.8170 H       1  UNL1        0.0632
     52 H         -27.6360   -1.5260   51.6920 H       1  UNL1        0.0755
     53 H         -24.6900   -1.2770   50.7900 H       1  UNL1        0.0266
     54 H         -25.7650    0.0740   51.0900 H       1  UNL1        0.0266
     55 H         -25.2600   -0.9370   52.4410 H       1  UNL1        0.0266
     56 N         -24.7230   -4.1340   53.1670 N.am    1  UNL1       -0.2883
     57 C         -23.7320   -4.5230   52.1530 C.3     1  UNL1        0.1025
     58 C         -24.1340   -5.7950   51.3520 C.2     1  UNL1        0.2367
     59 O         -24.8660   -6.6440   51.8690 O.2     1  UNL1       -0.2735
     60 C         -22.4640   -4.7940   52.9680 C.3     1  UNL1       -0.0243
     61 C         -23.0050   -5.2670   54.3140 C.3     1  UNL1       -0.0350
     62 C         -24.2460   -4.4100   54.5090 C.3     1  UNL1        0.0156
     63 H         -23.5960   -3.6700   51.4850 H       1  UNL1        0.0597
     64 H         -21.7920   -5.5280   52.5130 H       1  UNL1        0.0288
     65 H         -21.9060   -3.8600   53.1080 H       1  UNL1        0.0288
     66 H         -23.2840   -6.3260   54.2530 H       1  UNL1        0.0281
     67 H         -22.2840   -5.1520   55.1280 H       1  UNL1        0.0281
     68 H         -25.0190   -4.9070   55.1020 H       1  UNL1        0.0465
     69 H         -24.0000   -3.4530   54.9830 H       1  UNL1        0.0465
     70 N         -23.6010   -5.9630   50.0680 N.am    1  UNL1       -0.2884
     71 O         -22.8400   -2.7730   48.3840 O.2     1  UNL1       -0.2738
     72 C         -22.7410   -4.9680   49.3910 C.3     1  UNL1        0.1025
     73 C         -23.4500   -3.8170   48.6270 C.2     1  UNL1        0.2342
     74 C         -21.6720   -5.6140   48.4930 C.3     1  UNL1       -0.0231
     75 C         -22.2260   -6.7310   47.6070 C.3     1  UNL1       -0.0403
     76 C         -21.1130   -7.3710   46.7800 C.3     1  UNL1       -0.0623
     77 C         -22.9080   -7.7720   48.4950 C.3     1  UNL1       -0.0345
     78 C         -24.0350   -7.1340   49.2960 C.3     1  UNL1        0.0158
     79 H         -22.1770   -4.4490   50.1740 H       1  UNL1        0.0597
     80 H         -20.8890   -6.0330   49.1400 H       1  UNL1        0.0290
     81 H         -21.1830   -4.8540   47.8700 H       1  UNL1        0.0290
     82 H         -22.9650   -6.3090   46.9140 H       1  UNL1        0.0299
     83 H         -20.3430   -7.8140   47.4200 H       1  UNL1        0.0232
     84 H         -21.5140   -8.1620   46.1370 H       1  UNL1        0.0232
     85 H         -20.6320   -6.6270   46.1360 H       1  UNL1        0.0232
     86 H         -22.1770   -8.2160   49.1830 H       1  UNL1        0.0283
     87 H         -23.3120   -8.5870   47.8840 H       1  UNL1        0.0283
     88 H         -24.4750   -7.8900   49.9530 H       1  UNL1        0.0465
     89 H         -24.8270   -6.8190   48.6110 H       1  UNL1        0.0465
     90 N         -24.7080   -4.0420   48.1330 N.am    1  UNL1       -0.3027
     91 C         -25.4040   -3.0570   47.3020 C.3     1  UNL1        0.0968
     92 C         -26.8830   -3.4560   47.0930 C.2     1  UNL1        0.2363
     93 O         -27.1860   -4.6090   46.7650 O.2     1  UNL1       -0.2736
     94 C         -24.7670   -2.9390   45.9160 C.3     1  UNL1       -0.0381
     95 H         -25.2720   -4.8130   48.4990 H       1  UNL1        0.1495
     96 H         -25.3200   -2.0950   47.8100 H       1  UNL1        0.0592
     97 H         -23.7330   -2.5870   45.9740 H       1  UNL1        0.0252
     98 H         -25.3260   -2.2370   45.2880 H       1  UNL1        0.0252
     99 H         -24.7560   -3.9080   45.4030 H       1  UNL1        0.0252
    100 N         -27.8590   -2.4850   47.2140 N.am    1  UNL1       -0.2865
    101 C         -27.7200   -1.0660   47.5930 C.3     1  UNL1        0.1230
    102 C         -27.5650   -0.8210   49.1100 C.2     1  UNL1        0.3282
    103 O         -27.7690    0.2540   49.6580 O.2     1  UNL1       -0.2487
    104 C         -29.0210   -0.4400   47.0830 C.3     1  UNL1       -0.0225
    105 C         -30.0330   -1.5640   47.2670 C.3     1  UNL1       -0.0349
    106 C         -29.2380   -2.8020   46.8870 C.3     1  UNL1        0.0157
    107 H         -26.8430   -0.6360   47.0990 H       1  UNL1        0.0616
    108 H         -29.3180    0.4730   47.6050 H       1  UNL1        0.0289
    109 H         -28.9260   -0.2070   46.0150 H       1  UNL1        0.0289
    110 H         -30.3390   -1.6190   48.3180 H       1  UNL1        0.0281
    111 H         -30.9310   -1.4370   46.6560 H       1  UNL1        0.0281
    112 H         -29.5700   -3.6980   47.4180 H       1  UNL1        0.0465
    113 H         -29.2930   -2.9950   45.8090 H       1  UNL1        0.0465
@<TRIPOS>BOND
     1    98    94    1
     2    99    94    1
     3   113   106    1
     4    94    97    1
     5    94    91    1
     6   109   104    1
     7    85    76    1
     8    84    76    1
     9   111   105    1
    10    93    92    2
    11    76    83    1
    12    76    75    1
    13   106   100    1
    14   106   105    1
    15   106   112    1
    16    82    75    1
    17   104   105    1
    18   104   101    1
    19   104   108    1
    20    92   100   am
    21    92    91    1
    22   107   101    1
    23   100   101    1
    24   105   110    1
    25    26    34    1
    26    91    96    1
    27    91    90    1
    28    41    32    1
    29   101   102    1
    30    75    74    1
    31    75    77    1
    32    81    74    1
    33    87    77    1
    34    90    95    1
    35    90    73   am
    36    22    10    1
    37    34    32   ar
    38    34    31   ar
    39    32    30   ar
    40    71    73    2
    41    38    29    1
    42    74    80    1
    43    74    72    1
    44    77    86    1
    45    77    78    1
    46    21    10    1
    47    20    10    1
    48    89    78    1
    49    73    72    1
    50    10     9    1
    51    36    24    1
    52   102   103    2
    53   102    48    1
    54     1     4    1
    55    12     6    1
    56    78    88    1
    57    78    70    1
    58    72    70    1
    59    72    79    1
    60    40    31    1
    61    31    35   ar
    62    30    29    1
    63    30    33   ar
    64    29    39    1
    65    29    28    1
    66    25    23    2
    67    48    47    1
    68    24    28    1
    69    24     3   am
    70    70    58   am
    71     4     3    1
    72     4     5    2
    73     9    18    1
    74     9    19    1
    75     9     7    1
    76     6    13    1
    77     6     5    1
    78     6     7    1
    79    23    28    1
    80    23    43   am
    81    28    37    1
    82    35    33   ar
    83    35    27    1
    84    33    42    1
    85    14     7    1
    86    53    49    1
    87    51    44    1
    88     3     2    2
    89     5    11    1
    90     7     8    1
    91    54    49    1
    92    47    49    1
    93    47    44    1
    94    47    52    1
    95    43    44    1
    96    43    50    1
    97    58    59    2
    98    58    57    1
    99    49    55    1
   100    63    57    1
   101    44    45    1
   102    57    60    1
   103    57    56    1
   104     8    17    1
   105     8    15    1
   106     8    16    1
   107    64    60    1
   108    45    56   am
   109    45    46    2
   110    60    65    1
   111    60    61    1
   112    56    62    1
   113    66    61    1
   114    61    62    1
   115    61    67    1
   116    62    69    1
   117    62    68    1
