@<TRIPOS>MOLECULE
151.27912
 113 117 0 0 0
SMALL
GASTEIGER

@<TRIPOS>ATOM
      1 H         -31.2000   -3.2690   48.0130 H       1  UNL1        0.0666
      2 O         -31.0590   -3.9080   51.2620 O.2     1  UNL1       -0.2708
      3 C         -30.8770   -4.0410   50.0580 C.2     1  UNL1        0.2372
      4 C         -31.5770   -3.2390   49.0270 C.2     1  UNL1       -0.0038
      5 C         -32.6400   -2.4860   49.3480 C.2     1  UNL1       -0.0789
      6 C         -33.3820   -1.6380   48.3520 C.3     1  UNL1       -0.0317
      7 C         -33.5510   -0.1670   48.7860 C.3     1  UNL1       -0.0407
      8 C         -32.2020    0.4940   49.1020 C.3     1  UNL1       -0.0621
      9 C         -34.2750    0.6670   47.7080 C.3     1  UNL1       -0.0530
     10 C         -35.6830    0.1830   47.3920 C.3     1  UNL1       -0.0650
     11 H         -33.0050   -2.4750   50.3740 H       1  UNL1        0.0574
     12 H         -34.3700   -2.0950   48.2200 H       1  UNL1        0.0310
     13 H         -32.8860   -1.6750   47.3740 H       1  UNL1        0.0310
     14 H         -34.1560   -0.1410   49.7030 H       1  UNL1        0.0301
     15 H         -32.3370    1.5490   49.3610 H       1  UNL1        0.0233
     16 H         -31.7150    0.0140   49.9560 H       1  UNL1        0.0233
     17 H         -31.5240    0.4390   48.2440 H       1  UNL1        0.0233
     18 H         -33.6850    0.6780   46.7830 H       1  UNL1        0.0265
     19 H         -34.3440    1.7080   48.0490 H       1  UNL1        0.0265
     20 H         -36.2850    0.1010   48.3020 H       1  UNL1        0.0230
     21 H         -36.1790    0.8900   46.7190 H       1  UNL1        0.0230
     22 H         -35.6700   -0.7900   46.8910 H       1  UNL1        0.0230
     23 C         -27.9220   -4.9160   50.7400 C.2     1  UNL1        0.2344
     24 N         -29.9820   -4.9310   49.5230 N.am    1  UNL1       -0.3002
     25 O         -26.8780   -4.9270   50.0930 O.2     1  UNL1       -0.2737
     26 F         -31.3950   -9.2910   46.2710 F       1  UNL1       -0.2054
     27 F         -32.4830   -9.9460   50.8050 F       1  UNL1       -0.2054
     28 C         -29.1450   -5.7670   50.3810 C.3     1  UNL1        0.1036
     29 C         -28.6940   -7.0560   49.6770 C.3     1  UNL1       -0.0005
     30 C         -29.8390   -7.9620   49.2810 C.ar    1  UNL1       -0.0397
     31 C         -31.9730   -9.6400   48.5270 C.ar    1  UNL1        0.0088
     32 C         -30.0990   -8.2250   47.9280 C.ar    1  UNL1       -0.0230
     33 C         -30.6560   -8.5600   50.2510 C.ar    1  UNL1       -0.0230
     34 C         -31.1590   -9.0550   47.5680 C.ar    1  UNL1        0.1264
     35 C         -31.7100   -9.3860   49.8650 C.ar    1  UNL1        0.1264
     36 H         -29.8110   -4.9500   48.5260 H       1  UNL1        0.1498
     37 H         -29.6920   -6.0030   51.3020 H       1  UNL1        0.0598
     38 H         -28.1040   -6.8090   48.7840 H       1  UNL1        0.0336
     39 H         -28.0170   -7.6210   50.3310 H       1  UNL1        0.0336
     40 H         -32.7940  -10.2830   48.2370 H       1  UNL1        0.0675
     41 H         -29.4850   -7.7930   47.1430 H       1  UNL1        0.0649
     42 H         -30.4870   -8.3930   51.3120 H       1  UNL1        0.0649
     43 N         -28.1180   -4.0080   51.7520 N.am    1  UNL1       -0.2995
     44 C         -27.0340   -3.1530   52.2160 C.3     1  UNL1        0.1366
     45 C         -26.2880   -3.9080   53.3380 C.2     1  UNL1        0.2402
     46 O         -26.8620   -4.1370   54.4070 O.2     1  UNL1       -0.2734
     47 C         -27.5750   -1.8180   52.7770 C.3     1  UNL1        0.1270
     48 O         -28.3300   -1.0460   51.7790 O.3     1  UNL1       -0.4580
     49 C         -26.5370   -0.9760   53.5100 C.3     1  UNL1       -0.0254
     50 H         -29.0350   -3.9620   52.1970 H       1  UNL1        0.1496
     51 H         -26.3850   -2.9440   51.3700 H       1  UNL1        0.0632
     52 H         -28.3410   -2.0610   53.5260 H       1  UNL1        0.0755
     53 H         -25.6460   -0.8090   52.9000 H       1  UNL1        0.0266
     54 H         -26.9560   -0.0060   53.7910 H       1  UNL1        0.0266
     55 H         -26.2060   -1.4630   54.4330 H       1  UNL1        0.0266
     56 N         -24.9720   -4.2700   53.1490 N.am    1  UNL1       -0.2883
     57 C         -24.1760   -4.2800   51.9140 C.3     1  UNL1        0.1025
     58 C         -24.3360   -5.5960   51.0990 C.2     1  UNL1        0.2367
     59 O         -24.7610   -6.6160   51.6520 O.2     1  UNL1       -0.2735
     60 C         -22.7430   -4.2000   52.4460 C.3     1  UNL1       -0.0243
     61 C         -22.8000   -5.0490   53.7150 C.3     1  UNL1       -0.0350
     62 C         -24.1980   -4.7920   54.2650 C.3     1  UNL1        0.0156
     63 H         -24.4320   -3.4130   51.3060 H       1  UNL1        0.0597
     64 H         -21.9850   -4.5620   51.7450 H       1  UNL1        0.0288
     65 H         -22.5010   -3.1640   52.7110 H       1  UNL1        0.0288
     66 H         -22.6830   -6.1100   53.4640 H       1  UNL1        0.0281
     67 H         -22.0150   -4.7890   54.4310 H       1  UNL1        0.0281
     68 H         -24.6640   -5.7020   54.6570 H       1  UNL1        0.0465
     69 H         -24.1850   -4.0370   55.0580 H       1  UNL1        0.0465
     70 N         -23.8700   -5.6160   49.7810 N.am    1  UNL1       -0.2884
     71 O         -25.3950   -4.5860   47.3760 O.2     1  UNL1       -0.2738
     72 C         -23.5490   -4.4180   48.9820 C.3     1  UNL1        0.1025
     73 C         -24.7780   -3.8970   48.1860 C.2     1  UNL1        0.2342
     74 C         -22.3680   -4.6620   48.0290 C.3     1  UNL1       -0.0231
     75 C         -22.5000   -5.9600   47.2200 C.3     1  UNL1       -0.0403
     76 C         -21.2410   -6.2120   46.3910 C.3     1  UNL1       -0.0623
     77 C         -22.7760   -7.1360   48.1600 C.3     1  UNL1       -0.0345
     78 C         -23.9930   -6.8730   49.0400 C.3     1  UNL1        0.0158
     79 H         -23.2320   -3.6180   49.6560 H       1  UNL1        0.0597
     80 H         -21.4490   -4.7130   48.6300 H       1  UNL1        0.0290
     81 H         -22.2520   -3.8110   47.3470 H       1  UNL1        0.0290
     82 H         -23.3400   -5.8650   46.5220 H       1  UNL1        0.0299
     83 H         -20.3580   -6.3240   47.0290 H       1  UNL1        0.0232
     84 H         -21.3460   -7.1240   45.7950 H       1  UNL1        0.0232
     85 H         -21.0580   -5.3800   45.7020 H       1  UNL1        0.0232
     86 H         -21.9010   -7.3100   48.8000 H       1  UNL1        0.0283
     87 H         -22.9360   -8.0530   47.5810 H       1  UNL1        0.0283
     88 H         -24.1150   -7.7190   49.7260 H       1  UNL1        0.0465
     89 H         -24.9070   -6.8270   48.4390 H       1  UNL1        0.0465
     90 N         -25.1160   -2.5780   48.4420 N.am    1  UNL1       -0.3027
     91 C         -26.2170   -1.9430   47.7210 C.3     1  UNL1        0.0968
     92 C         -26.1010   -0.4100   47.7560 C.2     1  UNL1        0.2363
     93 O         -25.7670    0.1740   46.7160 O.2     1  UNL1       -0.2736
     94 C         -27.5940   -2.4530   48.1150 C.3     1  UNL1       -0.0381
     95 H         -24.4810   -1.9860   48.9580 H       1  UNL1        0.1495
     96 H         -26.0810   -2.2130   46.6640 H       1  UNL1        0.0592
     97 H         -27.7580   -3.4660   47.7340 H       1  UNL1        0.0252
     98 H         -28.3860   -1.8160   47.7080 H       1  UNL1        0.0252
     99 H         -27.7120   -2.5030   49.1960 H       1  UNL1        0.0252
    100 N         -26.2820    0.3110   48.9170 N.am    1  UNL1       -0.2865
    101 C         -26.5350   -0.1090   50.3220 C.3     1  UNL1        0.1230
    102 C         -28.0070   -0.4200   50.6270 C.2     1  UNL1        0.3282
    103 O         -28.9040   -0.0420   49.8740 O.2     1  UNL1       -0.2487
    104 C         -26.1210    1.1460   51.1080 C.3     1  UNL1       -0.0225
    105 C         -26.5060    2.2970   50.1910 C.3     1  UNL1       -0.0349
    106 C         -26.1590    1.7620   48.8200 C.3     1  UNL1        0.0157
    107 H         -25.9190   -0.9800   50.5380 H       1  UNL1        0.0616
    108 H         -26.6120    1.2640   52.0740 H       1  UNL1        0.0289
    109 H         -25.0360    1.1460   51.2640 H       1  UNL1        0.0289
    110 H         -27.5830    2.4910   50.2620 H       1  UNL1        0.0281
    111 H         -25.9790    3.2250   50.4270 H       1  UNL1        0.0281
    112 H         -26.8180    2.1550   48.0390 H       1  UNL1        0.0465
    113 H         -25.1220    1.9970   48.5550 H       1  UNL1        0.0465
@<TRIPOS>BOND
     1    85    76    1
     2    84    76    1
     3    26    34    1
     4    76    83    1
     5    76    75    1
     6    82    75    1
     7    96    91    1
     8    93    92    2
     9    21    10    1
    10    18     9    1
    11    22    10    1
    12    41    32    1
    13    75    74    1
    14    75    77    1
    15    81    74    1
    16    13     6    1
    17    71    73    2
    18    10     9    1
    19    10    20    1
    20    34    32   ar
    21    34    31   ar
    22    87    77    1
    23     9    19    1
    24     9     7    1
    25    98    94    1
    26    91    92    1
    27    91    94    1
    28    91    90    1
    29    97    94    1
    30    92   100   am
    31    32    30   ar
    32     1     4    1
    33    74    80    1
    34    74    72    1
    35   112   106    1
    36    94    99    1
    37    77    86    1
    38    77    78    1
    39    73    90   am
    40    73    72    1
    41    12     6    1
    42    40    31    1
    43    17     8    1
    44     6     7    1
    45     6     5    1
    46    89    78    1
    47    90    95    1
    48    36    24    1
    49    31    35   ar
    50   113   106    1
    51    38    29    1
    52     7     8    1
    53     7    14    1
    54   106   100    1
    55   106   105    1
    56   100   101    1
    57    72    79    1
    58    72    70    1
    59     4     5    2
    60     4     3    1
    61    78    88    1
    62    78    70    1
    63     8    15    1
    64     8    16    1
    65    30    29    1
    66    30    33   ar
    67     5    11    1
    68    24     3   am
    69    24    28    1
    70    29    39    1
    71    29    28    1
    72    70    58   am
    73    35    33   ar
    74    35    27    1
    75   103   102    2
    76     3     2    2
    77    25    23    2
    78   105   110    1
    79   105   111    1
    80   105   104    1
    81    33    42    1
    82   101   107    1
    83   101   102    1
    84   101   104    1
    85    28    23    1
    86    28    37    1
    87   102    48    1
    88    23    43   am
    89    58    59    2
    90    58    57    1
    91   104   109    1
    92   104   108    1
    93    63    57    1
    94    51    44    1
    95    64    60    1
    96    43    50    1
    97    43    44    1
    98    48    47    1
    99    57    60    1
   100    57    56    1
   101    44    47    1
   102    44    45    1
   103    60    65    1
   104    60    61    1
   105    47    49    1
   106    47    52    1
   107    53    49    1
   108    56    45   am
   109    56    62    1
   110    45    46    2
   111    66    61    1
   112    49    54    1
   113    49    55    1
   114    61    62    1
   115    61    67    1
   116    62    68    1
   117    62    69    1
