@<TRIPOS>MOLECULE
118.09122
 113 117 0 0 0
SMALL
GASTEIGER

@<TRIPOS>ATOM
      1 H         -30.0380   -4.2020   46.7370 H       1  UNL1        0.0666
      2 O         -30.7820   -5.8650   49.5080 O.2     1  UNL1       -0.2708
      3 C         -30.1390   -5.1930   48.7140 C.2     1  UNL1        0.2372
      4 C         -30.7100   -4.6600   47.4510 C.2     1  UNL1       -0.0038
      5 C         -32.0320   -4.7250   47.2280 C.2     1  UNL1       -0.0789
      6 C         -32.7050   -4.1780   46.0000 C.3     1  UNL1       -0.0317
      7 C         -33.7350   -3.0710   46.3150 C.3     1  UNL1       -0.0407
      8 C         -33.0740   -1.8690   47.0060 C.3     1  UNL1       -0.0621
      9 C         -34.4570   -2.5800   45.0440 C.3     1  UNL1       -0.0530
     10 C         -35.3120   -3.6440   44.3700 C.3     1  UNL1       -0.0650
     11 H         -32.6810   -5.1910   47.9690 H       1  UNL1        0.0574
     12 H         -33.2020   -5.0210   45.5070 H       1  UNL1        0.0310
     13 H         -31.9600   -3.7950   45.2900 H       1  UNL1        0.0310
     14 H         -34.4890   -3.4760   47.0030 H       1  UNL1        0.0301
     15 H         -33.8100   -1.0820   47.2030 H       1  UNL1        0.0233
     16 H         -32.6370   -2.1490   47.9700 H       1  UNL1        0.0233
     17 H         -32.2820   -1.4410   46.3820 H       1  UNL1        0.0233
     18 H         -33.7270   -2.1940   44.3210 H       1  UNL1        0.0265
     19 H         -35.1130   -1.7400   45.3060 H       1  UNL1        0.0265
     20 H         -36.0180   -4.0880   45.0790 H       1  UNL1        0.0230
     21 H         -35.8880   -3.1980   43.5530 H       1  UNL1        0.0230
     22 H         -34.7000   -4.4420   43.9410 H       1  UNL1        0.0230
     23 C         -27.1880   -3.9180   50.3890 C.2     1  UNL1        0.2344
     24 N         -28.8400   -4.8170   48.9090 N.am    1  UNL1       -0.3002
     25 O         -26.6370   -3.3330   49.4590 O.2     1  UNL1       -0.2737
     26 F         -28.0160   -8.5740   54.3980 F       1  UNL1       -0.2054
     27 F         -23.7750   -6.7920   53.4040 F       1  UNL1       -0.2054
     28 C         -28.1350   -5.1050   50.1560 C.3     1  UNL1        0.1036
     29 C         -27.3420   -6.4150   50.0670 C.3     1  UNL1       -0.0005
     30 C         -26.8200   -6.8800   51.4070 C.ar    1  UNL1       -0.0397
     31 C         -25.8820   -7.6950   53.9330 C.ar    1  UNL1        0.0088
     32 C         -27.6700   -7.5410   52.3060 C.ar    1  UNL1       -0.0230
     33 C         -25.4940   -6.6300   51.7920 C.ar    1  UNL1       -0.0230
     34 C         -27.1930   -7.9410   53.5520 C.ar    1  UNL1        0.1264
     35 C         -25.0420   -7.0380   53.0460 C.ar    1  UNL1        0.1264
     36 H         -28.3420   -4.2510   48.2310 H       1  UNL1        0.1498
     37 H         -28.8710   -5.1430   50.9680 H       1  UNL1        0.0598
     38 H         -27.9750   -7.2100   49.6510 H       1  UNL1        0.0336
     39 H         -26.5050   -6.3100   49.3630 H       1  UNL1        0.0336
     40 H         -25.5220   -8.0070   54.9050 H       1  UNL1        0.0675
     41 H         -28.7060   -7.7500   52.0480 H       1  UNL1        0.0649
     42 H         -24.8010   -6.1080   51.1340 H       1  UNL1        0.0649
     43 N         -27.0050   -3.5770   51.7000 N.am    1  UNL1       -0.2995
     44 C         -26.1320   -2.4800   52.1530 C.3     1  UNL1        0.1366
     45 C         -25.6840   -2.9510   53.5450 C.2     1  UNL1        0.2402
     46 O         -26.5040   -3.4870   54.3000 O.2     1  UNL1       -0.2734
     47 C         -26.9120   -1.1440   52.1500 C.3     1  UNL1        0.1270
     48 O         -26.8550   -0.6500   50.7830 O.3     1  UNL1       -0.4580
     49 C         -26.3410   -0.0630   53.0640 C.3     1  UNL1       -0.0254
     50 H         -27.4490   -4.1240   52.4350 H       1  UNL1        0.1496
     51 H         -25.2880   -2.4320   51.4610 H       1  UNL1        0.0632
     52 H         -27.9580   -1.3340   52.4250 H       1  UNL1        0.0755
     53 H         -25.3910    0.3190   52.6810 H       1  UNL1        0.0266
     54 H         -27.0120    0.8020   53.0990 H       1  UNL1        0.0266
     55 H         -26.2140   -0.4110   54.0920 H       1  UNL1        0.0266
     56 N         -24.3640   -2.8170   53.9070 N.am    1  UNL1       -0.2883
     57 C         -23.3290   -1.9810   53.2870 C.3     1  UNL1        0.1025
     58 C         -22.6880   -2.5390   51.9900 C.2     1  UNL1        0.2367
     59 O         -22.8660   -3.7120   51.6570 O.2     1  UNL1       -0.2735
     60 C         -22.2640   -1.8590   54.3870 C.3     1  UNL1       -0.0243
     61 C         -22.3900   -3.1770   55.1410 C.3     1  UNL1       -0.0350
     62 C         -23.8870   -3.4200   55.1400 C.3     1  UNL1        0.0156
     63 H         -23.7820   -1.0180   53.0590 H       1  UNL1        0.0597
     64 H         -21.2460   -1.7010   54.0180 H       1  UNL1        0.0288
     65 H         -22.5180   -1.0280   55.0570 H       1  UNL1        0.0288
     66 H         -21.8760   -3.9730   54.5890 H       1  UNL1        0.0281
     67 H         -21.9700   -3.1330   56.1500 H       1  UNL1        0.0281
     68 H         -24.1470   -4.4820   55.1780 H       1  UNL1        0.0465
     69 H         -24.3750   -2.9090   55.9780 H       1  UNL1        0.0465
     70 N         -21.8870   -1.6690   51.2380 N.am    1  UNL1       -0.2884
     71 O         -22.9560    1.8560   50.9210 O.2     1  UNL1       -0.2738
     72 C         -21.8070   -0.2070   51.4650 C.3     1  UNL1        0.1025
     73 C         -22.8350    0.6530   50.6890 C.2     1  UNL1        0.2342
     74 C         -20.3820    0.3390   51.2940 C.3     1  UNL1       -0.0231
     75 C         -19.7010   -0.1630   50.0180 C.3     1  UNL1       -0.0403
     76 C         -18.2640    0.3490   49.9430 C.3     1  UNL1       -0.0623
     77 C         -19.7360   -1.6930   49.9940 C.3     1  UNL1       -0.0345
     78 C         -21.1690   -2.2090   50.0770 C.3     1  UNL1        0.0158
     79 H         -22.0640   -0.0050   52.5080 H       1  UNL1        0.0597
     80 H         -19.7870    0.0200   52.1610 H       1  UNL1        0.0290
     81 H         -20.3840    1.4360   51.3070 H       1  UNL1        0.0290
     82 H         -20.2470    0.2220   49.1460 H       1  UNL1        0.0299
     83 H         -17.6700   -0.0040   50.7940 H       1  UNL1        0.0232
     84 H         -17.7760    0.0060   49.0250 H       1  UNL1        0.0232
     85 H         -18.2410    1.4440   49.9470 H       1  UNL1        0.0232
     86 H         -19.1580   -2.0920   50.8380 H       1  UNL1        0.0283
     87 H         -19.2670   -2.0680   49.0770 H       1  UNL1        0.0283
     88 H         -21.1520   -3.3030   50.1090 H       1  UNL1        0.0465
     89 H         -21.7160   -1.9280   49.1710 H       1  UNL1        0.0465
     90 N         -23.5910    0.0170   49.7390 N.am    1  UNL1       -0.3027
     91 C         -24.5840    0.7190   48.9290 C.3     1  UNL1        0.0968
     92 C         -25.3730   -0.3160   48.1060 C.2     1  UNL1        0.2363
     93 O         -24.7610   -1.1600   47.4410 O.2     1  UNL1       -0.2736
     94 C         -23.9310    1.6840   47.9400 C.3     1  UNL1       -0.0381
     95 H         -23.4930   -0.9830   49.5860 H       1  UNL1        0.1495
     96 H         -25.2260    1.2780   49.6130 H       1  UNL1        0.0592
     97 H         -23.3930    2.4870   48.4520 H       1  UNL1        0.0252
     98 H         -24.6840    2.1440   47.2900 H       1  UNL1        0.0252
     99 H         -23.2100    1.1660   47.2960 H       1  UNL1        0.0252
    100 N         -26.7480   -0.2540   48.1030 N.am    1  UNL1       -0.2865
    101 C         -27.6360    0.6190   48.8920 C.3     1  UNL1        0.1230
    102 C         -27.8100    0.2240   50.3750 C.2     1  UNL1        0.3282
    103 O         -28.6650    0.7050   51.1090 O.2     1  UNL1       -0.2487
    104 C         -28.9800    0.4970   48.1660 C.3     1  UNL1       -0.0225
    105 C         -28.9590   -0.9380   47.6490 C.3     1  UNL1       -0.0349
    106 C         -27.5130   -1.1160   47.2190 C.3     1  UNL1        0.0157
    107 H         -27.2550    1.6440   48.8670 H       1  UNL1        0.0616
    108 H         -29.8530    0.6960   48.7940 H       1  UNL1        0.0289
    109 H         -29.0070    1.1900   47.3150 H       1  UNL1        0.0289
    110 H         -29.2010   -1.6310   48.4640 H       1  UNL1        0.0281
    111 H         -29.6650   -1.1080   46.8330 H       1  UNL1        0.0281
    112 H         -27.1740   -2.1540   47.2700 H       1  UNL1        0.0465
    113 H         -27.3610   -0.7570   46.1940 H       1  UNL1        0.0465
@<TRIPOS>BOND
     1    21    10    1
     2    22    10    1
     3    18     9    1
     4    10     9    1
     5    10    20    1
     6     9    19    1
     7     9     7    1
     8    13     6    1
     9    12     6    1
    10     6     7    1
    11     6     5    1
    12   113   106    1
    13     7    14    1
    14     7     8    1
    15    17     8    1
    16     1     4    1
    17   111   105    1
    18     8    15    1
    19     8    16    1
    20   106   112    1
    21   106   105    1
    22   106   100    1
    23     5     4    2
    24     5    11    1
    25    98    94    1
    26    99    94    1
    27   109   104    1
    28    93    92    2
    29     4     3    1
    30   105   104    1
    31   105   110    1
    32    94    97    1
    33    94    91    1
    34   100    92   am
    35   100   101    1
    36    92    91    1
    37   104   108    1
    38   104   101    1
    39    36    24    1
    40     3    24   am
    41     3     2    2
    42   107   101    1
    43   101   102    1
    44    24    28    1
    45    91    96    1
    46    91    90    1
    47    84    76    1
    48    87    77    1
    49    82    75    1
    50    89    78    1
    51    39    29    1
    52    25    23    2
    53    95    90    1
    54    38    29    1
    55    90    73   am
    56    76    85    1
    57    76    75    1
    58    76    83    1
    59    77    75    1
    60    77    78    1
    61    77    86    1
    62    75    74    1
    63    29    28    1
    64    29    30    1
    65    78    88    1
    66    78    70    1
    67    28    23    1
    68    28    37    1
    69   102    48    1
    70   102   103    2
    71    23    43   am
    72    73    71    2
    73    73    72    1
    74    48    47    1
    75    42    33    1
    76    70    72    1
    77    70    58   am
    78    74    81    1
    79    74    72    1
    80    74    80    1
    81    30    33   ar
    82    30    32   ar
    83    51    44    1
    84    72    79    1
    85    59    58    2
    86    43    44    1
    87    43    50    1
    88    33    35   ar
    89    58    57    1
    90    41    32    1
    91    47    44    1
    92    47    52    1
    93    47    49    1
    94    44    45    1
    95    32    34   ar
    96    53    49    1
    97    35    27    1
    98    35    31   ar
    99    63    57    1
   100    49    54    1
   101    49    55    1
   102    57    56    1
   103    57    60    1
   104    45    56   am
   105    45    46    2
   106    34    31   ar
   107    34    26    1
   108    56    62    1
   109    31    40    1
   110    64    60    1
   111    60    65    1
   112    60    61    1
   113    66    61    1
   114    62    61    1
   115    62    68    1
   116    62    69    1
   117    61    67    1
