@<TRIPOS>MOLECULE
117.36160
 113 117 0 0 0
SMALL
GASTEIGER

@<TRIPOS>ATOM
      1 H         -28.0490   -4.8710   46.0880 H       1  UNL1        0.0666
      2 O         -30.0680   -5.7280   48.5780 O.2     1  UNL1       -0.2708
      3 C         -29.0880   -5.2760   47.9990 C.2     1  UNL1        0.2372
      4 C         -28.9880   -5.1900   46.5220 C.2     1  UNL1       -0.0038
      5 C         -30.0440   -5.5050   45.7560 C.2     1  UNL1       -0.0789
      6 C         -30.0400   -5.4590   44.2530 C.3     1  UNL1       -0.0317
      7 C         -31.0580   -4.4520   43.6760 C.3     1  UNL1       -0.0407
      8 C         -30.7240   -3.0160   44.1060 C.3     1  UNL1       -0.0621
      9 C         -31.1150   -4.5140   42.1360 C.3     1  UNL1       -0.0530
     10 C         -31.6500   -5.8320   41.5940 C.3     1  UNL1       -0.0650
     11 H         -30.9730   -5.8290   46.2260 H       1  UNL1        0.0574
     12 H         -30.2760   -6.4720   43.9060 H       1  UNL1        0.0310
     13 H         -29.0360   -5.2270   43.8760 H       1  UNL1        0.0310
     14 H         -32.0560   -4.6930   44.0660 H       1  UNL1        0.0301
     15 H         -31.4350   -2.3060   43.6710 H       1  UNL1        0.0233
     16 H         -30.7760   -2.9000   45.1930 H       1  UNL1        0.0233
     17 H         -29.7180   -2.7300   43.7800 H       1  UNL1        0.0233
     18 H         -30.1190   -4.3290   41.7140 H       1  UNL1        0.0265
     19 H         -31.7670   -3.7120   41.7680 H       1  UNL1        0.0265
     20 H         -32.6230   -6.0730   42.0340 H       1  UNL1        0.0230
     21 H         -31.7780   -5.7660   40.5080 H       1  UNL1        0.0230
     22 H         -30.9640   -6.6610   41.7920 H       1  UNL1        0.0230
     23 C         -26.8920   -3.6710   50.5020 C.2     1  UNL1        0.2344
     24 N         -27.9830   -4.7960   48.6420 N.am    1  UNL1       -0.3002
     25 O         -26.1430   -3.1300   49.6920 O.2     1  UNL1       -0.2737
     26 F         -22.6950   -6.8610   50.9060 F       1  UNL1       -0.2054
     27 F         -25.1900   -9.0480   47.5680 F       1  UNL1       -0.2054
     28 C         -27.8880   -4.7710   50.0970 C.3     1  UNL1        0.1036
     29 C         -27.5390   -6.1370   50.7120 C.3     1  UNL1       -0.0005
     30 C         -26.2650   -6.7680   50.1950 C.ar    1  UNL1       -0.0397
     31 C         -23.9100   -7.9660   49.2220 C.ar    1  UNL1        0.0088
     32 C         -25.0280   -6.5030   50.8000 C.ar    1  UNL1       -0.0230
     33 C         -26.3050   -7.6360   49.0940 C.ar    1  UNL1       -0.0230
     34 C         -23.8700   -7.1070   50.3100 C.ar    1  UNL1        0.1264
     35 C         -25.1330   -8.2220   48.6210 C.ar    1  UNL1        0.1264
     36 H         -27.1920   -4.4130   48.1340 H       1  UNL1        0.1498
     37 H         -28.8700   -4.4640   50.4820 H       1  UNL1        0.0598
     38 H         -27.4680   -6.0550   51.8040 H       1  UNL1        0.0336
     39 H         -28.3660   -6.8370   50.5320 H       1  UNL1        0.0336
     40 H         -23.0040   -8.4300   48.8520 H       1  UNL1        0.0675
     41 H         -24.9410   -5.8340   51.6530 H       1  UNL1        0.0649
     42 H         -27.2450   -7.8680   48.5980 H       1  UNL1        0.0649
     43 N         -26.9310   -3.3280   51.8290 N.am    1  UNL1       -0.2995
     44 C         -26.1260   -2.2430   52.4190 C.3     1  UNL1        0.1366
     45 C         -25.8430   -2.7390   53.8430 C.2     1  UNL1        0.2402
     46 O         -26.7480   -3.2870   54.4860 O.2     1  UNL1       -0.2734
     47 C         -26.9290   -0.9250   52.3670 C.3     1  UNL1        0.1270
     48 O         -26.7890   -0.4320   51.0090 O.3     1  UNL1       -0.4580
     49 C         -26.4330    0.1630   53.3150 C.3     1  UNL1       -0.0254
     50 H         -27.5420   -3.8230   52.4740 H       1  UNL1        0.1496
     51 H         -25.2080   -2.1560   51.8330 H       1  UNL1        0.0632
     52 H         -27.9870   -1.1330   52.5760 H       1  UNL1        0.0755
     53 H         -25.4430    0.5210   53.0230 H       1  UNL1        0.0266
     54 H         -27.0900    1.0380   53.2700 H       1  UNL1        0.0266
     55 H         -26.4100   -0.1740   54.3550 H       1  UNL1        0.0266
     56 N         -24.5740   -2.6160   54.3600 N.am    1  UNL1       -0.2883
     57 C         -23.4560   -1.8000   53.8610 C.3     1  UNL1        0.1025
     58 C         -22.7220   -2.3780   52.6240 C.2     1  UNL1        0.2367
     59 O         -22.8830   -3.5580   52.3050 O.2     1  UNL1       -0.2735
     60 C         -22.4950   -1.7390   55.0570 C.3     1  UNL1       -0.0243
     61 C         -22.7480   -3.0560   55.7790 C.3     1  UNL1       -0.0350
     62 C         -24.2470   -3.2360   55.6330 C.3     1  UNL1        0.0156
     63 H         -23.8490   -0.8160   53.6120 H       1  UNL1        0.0597
     64 H         -21.4410   -1.6250   54.7850 H       1  UNL1        0.0288
     65 H         -22.7720   -0.9040   55.7120 H       1  UNL1        0.0288
     66 H         -22.2170   -3.8690   55.2690 H       1  UNL1        0.0281
     67 H         -22.4250   -3.0400   56.8230 H       1  UNL1        0.0281
     68 H         -24.5530   -4.2860   55.6440 H       1  UNL1        0.0465
     69 H         -24.7920   -2.7010   56.4190 H       1  UNL1        0.0465
     70 N         -21.8670   -1.5250   51.9100 N.am    1  UNL1       -0.2884
     71 O         -23.1330    1.9210   51.9550 O.2     1  UNL1       -0.2738
     72 C         -21.7640   -0.0660   52.1630 C.3     1  UNL1        0.1025
     73 C         -22.8580    0.8090   51.5030 C.2     1  UNL1        0.2342
     74 C         -20.3730    0.5120   51.8690 C.3     1  UNL1       -0.0231
     75 C         -19.7870    0.0150   50.5480 C.3     1  UNL1       -0.0403
     76 C         -18.3880    0.5900   50.3320 C.3     1  UNL1       -0.0623
     77 C         -19.7510   -1.5120   50.5710 C.3     1  UNL1       -0.0345
     78 C         -21.1470   -2.0930   50.7630 C.3     1  UNL1        0.0158
     79 H         -21.9260    0.0940   53.2340 H       1  UNL1        0.0597
     80 H         -19.7000    0.2190   52.6870 H       1  UNL1        0.0290
     81 H         -20.4040    1.6090   51.8740 H       1  UNL1        0.0290
     82 H         -20.4240    0.3500   49.7190 H       1  UNL1        0.0299
     83 H         -17.7030    0.2870   51.1310 H       1  UNL1        0.0232
     84 H         -17.9700    0.2460   49.3800 H       1  UNL1        0.0232
     85 H         -18.4170    1.6840   50.3100 H       1  UNL1        0.0232
     86 H         -19.1020   -1.8560   51.3870 H       1  UNL1        0.0283
     87 H         -19.3230   -1.8970   49.6380 H       1  UNL1        0.0283
     88 H         -21.0610   -3.1800   50.8710 H       1  UNL1        0.0465
     89 H         -21.7460   -1.9220   49.8640 H       1  UNL1        0.0465
     90 N         -23.4200    0.3400   50.3490 N.am    1  UNL1       -0.3027
     91 C         -24.4180    1.0880   49.5860 C.3     1  UNL1        0.0968
     92 C         -25.0150    0.1200   48.5480 C.2     1  UNL1        0.2363
     93 O         -24.2610   -0.5940   47.8770 O.2     1  UNL1       -0.2736
     94 C         -23.7980    2.2680   48.8440 C.3     1  UNL1       -0.0381
     95 H         -23.1930   -0.5860   50.0040 H       1  UNL1        0.1495
     96 H         -25.1660    1.4570   50.2890 H       1  UNL1        0.0592
     97 H         -23.3730    2.9990   49.5390 H       1  UNL1        0.0252
     98 H         -24.5480    2.7790   48.2310 H       1  UNL1        0.0252
     99 H         -22.9910    1.9400   48.1780 H       1  UNL1        0.0252
    100 N         -26.3810    0.0790   48.3840 N.am    1  UNL1       -0.2865
    101 C         -27.4190    0.8550   49.0830 C.3     1  UNL1        0.1230
    102 C         -27.7410    0.4030   50.5230 C.2     1  UNL1        0.3282
    103 O         -28.6940    0.8170   51.1720 O.2     1  UNL1       -0.2487
    104 C         -28.6530    0.6660   48.1940 C.3     1  UNL1       -0.0225
    105 C         -28.4600   -0.7390   47.6330 C.3     1  UNL1       -0.0349
    106 C         -26.9640   -0.7950   47.3790 C.3     1  UNL1        0.0157
    107 H         -27.1080    1.9040   49.1340 H       1  UNL1        0.0616
    108 H         -29.6080    0.7720   48.7180 H       1  UNL1        0.0289
    109 H         -28.6330    1.3920   47.3720 H       1  UNL1        0.0289
    110 H         -28.7440   -1.4850   48.3850 H       1  UNL1        0.0281
    111 H         -29.0470   -0.9240   46.7290 H       1  UNL1        0.0281
    112 H         -26.5560   -1.8070   47.4440 H       1  UNL1        0.0465
    113 H         -26.7130   -0.3830   46.3950 H       1  UNL1        0.0465
@<TRIPOS>BOND
     1    21    10    1
     2    10    22    1
     3    10    20    1
     4    10     9    1
     5    18     9    1
     6    19     9    1
     7     9     7    1
     8    15     8    1
     9     7    14    1
    10     7     8    1
    11     7     6    1
    12    17     8    1
    13    13     6    1
    14    12     6    1
    15     8    16    1
    16     6     5    1
    17     5    11    1
    18     5     4    2
    19     1     4    1
    20   113   106    1
    21     4     3    1
    22   111   105    1
    23   109   104    1
    24   106   112    1
    25   106   105    1
    26   106   100    1
    27    27    35    1
    28   105   104    1
    29   105   110    1
    30    93    92    2
    31     3     2    2
    32     3    24   am
    33    36    24    1
    34    99    94    1
    35   104   108    1
    36   104   101    1
    37    98    94    1
    38   100    92   am
    39   100   101    1
    40    92    91    1
    41    42    33    1
    42    35    33   ar
    43    35    31   ar
    44    24    28    1
    45    94    97    1
    46    94    91    1
    47    40    31    1
    48   101   107    1
    49   101   102    1
    50    33    30   ar
    51    31    34   ar
    52    84    76    1
    53    91    96    1
    54    91    90    1
    55    87    77    1
    56    25    23    2
    57    82    75    1
    58    89    78    1
    59    95    90    1
    60    28    37    1
    61    28    23    1
    62    28    29    1
    63    30    29    1
    64    30    32   ar
    65    34    32   ar
    66    34    26    1
    67    85    76    1
    68    76    75    1
    69    76    83    1
    70    90    73   am
    71    23    43   am
    72   102    48    1
    73   102   103    2
    74    39    29    1
    75    75    77    1
    76    75    74    1
    77    77    78    1
    78    77    86    1
    79    29    38    1
    80    78    88    1
    81    78    70    1
    82    32    41    1
    83    48    47    1
    84    73    71    2
    85    73    72    1
    86    43    44    1
    87    43    50    1
    88    51    44    1
    89    74    81    1
    90    74    72    1
    91    74    80    1
    92    70    72    1
    93    70    58   am
    94    72    79    1
    95    59    58    2
    96    47    44    1
    97    47    52    1
    98    47    49    1
    99    44    45    1
   100    58    57    1
   101    53    49    1
   102    54    49    1
   103    49    55    1
   104    63    57    1
   105    45    56   am
   106    45    46    2
   107    57    56    1
   108    57    60    1
   109    56    62    1
   110    64    60    1
   111    60    65    1
   112    60    61    1
   113    66    61    1
   114    62    68    1
   115    62    61    1
   116    62    69    1
   117    61    67    1
