@<TRIPOS>MOLECULE
131.12926
 113 117 0 0 0
SMALL
GASTEIGER

@<TRIPOS>ATOM
      1 H         -29.4650   -4.0670   45.8790 H       1  UNL1        0.0666
      2 O         -31.2510   -4.5810   48.6300 O.2     1  UNL1       -0.2708
      3 C         -30.2740   -4.4330   47.9080 C.2     1  UNL1        0.2372
      4 C         -30.3770   -4.1280   46.4590 C.2     1  UNL1       -0.0038
      5 C         -31.5790   -3.9090   45.9040 C.2     1  UNL1       -0.0789
      6 C         -31.7930   -3.5590   44.4570 C.3     1  UNL1       -0.0317
      7 C         -32.4760   -2.1880   44.2650 C.3     1  UNL1       -0.0407
      8 C         -31.6100   -1.0500   44.8240 C.3     1  UNL1       -0.0621
      9 C         -32.7830   -1.9010   42.7810 C.3     1  UNL1       -0.0530
     10 C         -33.8130   -2.8430   42.1740 C.3     1  UNL1       -0.0650
     11 H         -32.4760   -3.9770   46.5200 H       1  UNL1        0.0574
     12 H         -32.4160   -4.3520   44.0280 H       1  UNL1        0.0310
     13 H         -30.8420   -3.5780   43.9100 H       1  UNL1        0.0310
     14 H         -33.4260   -2.1840   44.8180 H       1  UNL1        0.0301
     15 H         -32.0920   -0.0790   44.6630 H       1  UNL1        0.0233
     16 H         -31.4530   -1.1560   45.9020 H       1  UNL1        0.0233
     17 H         -30.6290   -1.0240   44.3370 H       1  UNL1        0.0233
     18 H         -31.8600   -1.9450   42.1900 H       1  UNL1        0.0265
     19 H         -33.1690   -0.8780   42.6860 H       1  UNL1        0.0265
     20 H         -34.7300   -2.8610   42.7710 H       1  UNL1        0.0230
     21 H         -34.0740   -2.5110   41.1640 H       1  UNL1        0.0230
     22 H         -33.4300   -3.8640   42.0940 H       1  UNL1        0.0230
     23 C         -27.2700   -4.1500   50.0370 C.2     1  UNL1        0.2344
     24 N         -28.9840   -4.5100   48.3530 N.am    1  UNL1       -0.3002
     25 O         -26.3830   -4.1560   49.1860 O.2     1  UNL1       -0.2737
     26 F         -24.5840   -8.6430   49.7670 F       1  UNL1       -0.2054
     27 F         -27.8700   -9.1410   46.4320 F       1  UNL1       -0.2054
     28 C         -28.6740   -4.7150   49.7630 C.3     1  UNL1        0.1036
     29 C         -28.7900   -6.1810   50.2180 C.3     1  UNL1       -0.0005
     30 C         -27.8940   -7.1520   49.4810 C.ar    1  UNL1       -0.0397
     31 C         -26.2040   -8.9170   48.0810 C.ar    1  UNL1        0.0088
     32 C         -26.6250   -7.4730   49.9810 C.ar    1  UNL1       -0.0230
     33 C         -28.3080   -7.7320   48.2730 C.ar    1  UNL1       -0.0230
     34 C         -25.7960   -8.3470   49.2790 C.ar    1  UNL1        0.1264
     35 C         -27.4620   -8.6020   47.5890 C.ar    1  UNL1        0.1264
     36 H         -28.1940   -4.4030   47.7260 H       1  UNL1        0.1498
     37 H         -29.3940   -4.1210   50.3410 H       1  UNL1        0.0598
     38 H         -28.5730   -6.2490   51.2920 H       1  UNL1        0.0336
     39 H         -29.8290   -6.5200   50.1070 H       1  UNL1        0.0336
     40 H         -25.5530   -9.5930   47.5410 H       1  UNL1        0.0675
     41 H         -26.2660   -7.0440   50.9140 H       1  UNL1        0.0649
     42 H         -29.2860   -7.5110   47.8530 H       1  UNL1        0.0649
     43 N         -27.1000   -3.6350   51.2970 N.am    1  UNL1       -0.2995
     44 C         -25.8230   -3.1010   51.8130 C.3     1  UNL1        0.1366
     45 C         -26.1340   -2.7830   53.2900 C.2     1  UNL1        0.2402
     46 O         -27.1690   -2.1570   53.5610 O.2     1  UNL1       -0.2734
     47 C         -25.3400   -1.8620   51.0220 C.3     1  UNL1        0.1270
     48 O         -23.9780   -1.4700   51.3120 O.3     1  UNL1       -0.4580
     49 C         -26.1990   -0.6120   51.2120 C.3     1  UNL1       -0.0254
     50 H         -27.8890   -3.5970   51.9380 H       1  UNL1        0.1496
     51 H         -25.0990   -3.9080   51.7310 H       1  UNL1        0.0632
     52 H         -25.3770   -2.0840   49.9490 H       1  UNL1        0.0755
     53 H         -26.0820   -0.1920   52.2160 H       1  UNL1        0.0266
     54 H         -25.8710    0.1730   50.5200 H       1  UNL1        0.0266
     55 H         -27.2570   -0.8120   51.0220 H       1  UNL1        0.0266
     56 N         -25.3560   -3.2930   54.3020 N.am    1  UNL1       -0.2883
     57 C         -24.0350   -3.9570   54.2370 C.3     1  UNL1        0.1025
     58 C         -24.0790   -5.3410   53.5340 C.2     1  UNL1        0.2367
     59 O         -25.1630   -5.9020   53.3400 O.2     1  UNL1       -0.2735
     60 C         -23.6200   -4.0660   55.7140 C.3     1  UNL1       -0.0243
     61 C         -24.9330   -4.0490   56.4820 C.3     1  UNL1       -0.0350
     62 C         -25.7800   -3.0930   55.6770 C.3     1  UNL1        0.0156
     63 H         -23.3680   -3.3030   53.6700 H       1  UNL1        0.0597
     64 H         -23.0610   -4.9650   55.9770 H       1  UNL1        0.0288
     65 H         -23.0190   -3.1910   55.9910 H       1  UNL1        0.0288
     66 H         -25.3800   -5.0500   56.4740 H       1  UNL1        0.0281
     67 H         -24.8140   -3.7340   57.5230 H       1  UNL1        0.0281
     68 H         -26.8520   -3.2770   55.7970 H       1  UNL1        0.0465
     69 H         -25.5700   -2.0500   55.9430 H       1  UNL1        0.0465
     70 N         -22.8820   -5.8740   53.0440 N.am    1  UNL1       -0.2884
     71 O         -20.5810   -3.3150   53.7050 O.2     1  UNL1       -0.2738
     72 C         -21.5410   -5.5220   53.5490 C.3     1  UNL1        0.1025
     73 C         -20.8790   -4.2580   52.9700 C.2     1  UNL1        0.2342
     74 C         -20.5540   -6.7060   53.5650 C.3     1  UNL1       -0.0231
     75 C         -20.6210   -7.5950   52.3210 C.3     1  UNL1       -0.0403
     76 C         -19.7060   -8.8100   52.4710 C.3     1  UNL1       -0.0623
     77 C         -22.0680   -8.0310   52.0950 C.3     1  UNL1       -0.0345
     78 C         -22.9730   -6.8200   51.9320 C.3     1  UNL1        0.0158
     79 H         -21.6640   -5.2690   54.6030 H       1  UNL1        0.0597
     80 H         -20.7870   -7.3260   54.4420 H       1  UNL1        0.0290
     81 H         -19.5270   -6.3450   53.7100 H       1  UNL1        0.0290
     82 H         -20.2770   -7.0290   51.4480 H       1  UNL1        0.0299
     83 H         -20.0000   -9.4300   53.3240 H       1  UNL1        0.0232
     84 H         -19.7410   -9.4340   51.5720 H       1  UNL1        0.0232
     85 H         -18.6680   -8.4960   52.6210 H       1  UNL1        0.0232
     86 H         -22.4150   -8.6360   52.9420 H       1  UNL1        0.0283
     87 H         -22.1380   -8.6610   51.2000 H       1  UNL1        0.0283
     88 H         -24.0020   -7.1630   51.7970 H       1  UNL1        0.0465
     89 H         -22.7090   -6.2720   51.0210 H       1  UNL1        0.0465
     90 N         -20.5520   -4.2690   51.6430 N.am    1  UNL1       -0.3027
     91 C         -19.5950   -3.3160   51.0940 C.3     1  UNL1        0.0968
     92 C         -19.9390   -2.9890   49.6310 C.2     1  UNL1        0.2363
     93 O         -19.3890   -3.5770   48.6970 O.2     1  UNL1       -0.2736
     94 C         -18.1840   -3.8970   51.2000 C.3     1  UNL1       -0.0381
     95 H         -20.9760   -4.9410   51.0130 H       1  UNL1        0.1495
     96 H         -19.6050   -2.3930   51.6800 H       1  UNL1        0.0592
     97 H         -17.9110   -4.0680   52.2470 H       1  UNL1        0.0252
     98 H         -17.4470   -3.2150   50.7630 H       1  UNL1        0.0252
     99 H         -18.1050   -4.8580   50.6790 H       1  UNL1        0.0252
    100 N         -20.9140   -2.0410   49.4020 N.am    1  UNL1       -0.2865
    101 C         -21.7750   -1.3600   50.3820 C.3     1  UNL1        0.1230
    102 C         -23.0150   -2.2190   50.7020 C.2     1  UNL1        0.3282
    103 O         -23.1290   -3.4120   50.4560 O.2     1  UNL1       -0.2487
    104 C         -22.1660   -0.0850   49.6260 C.3     1  UNL1       -0.0225
    105 C         -22.3130   -0.5730   48.1860 C.3     1  UNL1       -0.0349
    106 C         -21.1940   -1.5950   48.0470 C.3     1  UNL1        0.0157
    107 H         -21.2480   -1.1470   51.3140 H       1  UNL1        0.0616
    108 H         -23.0740    0.4040   49.9870 H       1  UNL1        0.0289
    109 H         -21.3460    0.6430   49.6800 H       1  UNL1        0.0289
    110 H         -23.2860   -1.0600   48.0530 H       1  UNL1        0.0281
    111 H         -22.2360    0.2340   47.4530 H       1  UNL1        0.0281
    112 H         -21.4750   -2.4430   47.4150 H       1  UNL1        0.0465
    113 H         -20.2830   -1.1420   47.6420 H       1  UNL1        0.0465
@<TRIPOS>BOND
     1    21    10    1
     2    22    10    1
     3    10    20    1
     4    10     9    1
     5    18     9    1
     6    19     9    1
     7     9     7    1
     8    13     6    1
     9    12     6    1
    10     7     6    1
    11     7    14    1
    12     7     8    1
    13    17     8    1
    14     6     5    1
    15    15     8    1
    16     8    16    1
    17     1     4    1
    18     5     4    2
    19     5    11    1
    20    27    35    1
    21     4     3    1
    22   112   106    1
    23   111   105    1
    24    40    31    1
    25    35    31   ar
    26    35    33   ar
    27   113   106    1
    28    36    24    1
    29    42    33    1
    30     3    24   am
    31     3     2    2
    32   106   105    1
    33   106   100    1
    34   110   105    1
    35    31    34   ar
    36   105   104    1
    37    33    30   ar
    38    24    28    1
    39    93    92    2
    40    25    23    2
    41    34    26    1
    42    34    32   ar
    43   100    92   am
    44   100   101    1
    45    30    32   ar
    46    30    29    1
    47   104   109    1
    48   104   108    1
    49   104   101    1
    50    92    91    1
    51    28    23    1
    52    28    29    1
    53    28    37    1
    54    52    47    1
    55    32    41    1
    56    23    43   am
    57    39    29    1
    58    29    38    1
    59   101   102    1
    60   101   107    1
    61   103   102    2
    62    54    49    1
    63    99    94    1
    64   102    48    1
    65    98    94    1
    66    95    90    1
    67    89    78    1
    68    55    49    1
    69    47    49    1
    70    47    48    1
    71    47    44    1
    72    91    94    1
    73    91    90    1
    74    91    96    1
    75    94    97    1
    76    87    77    1
    77    49    53    1
    78    43    44    1
    79    43    50    1
    80    82    75    1
    81    84    76    1
    82    90    73   am
    83    51    44    1
    84    88    78    1
    85    44    45    1
    86    78    77    1
    87    78    70    1
    88    77    75    1
    89    77    86    1
    90    75    76    1
    91    75    74    1
    92    76    85    1
    93    76    83    1
    94    73    72    1
    95    73    71    2
    96    70    58   am
    97    70    72    1
    98    45    46    2
    99    45    56   am
   100    59    58    2
   101    58    57    1
   102    72    74    1
   103    72    79    1
   104    74    81    1
   105    74    80    1
   106    63    57    1
   107    57    56    1
   108    57    60    1
   109    56    62    1
   110    62    68    1
   111    62    69    1
   112    62    61    1
   113    60    64    1
   114    60    65    1
   115    60    61    1
   116    66    61    1
   117    61    67    1
