@<TRIPOS>MOLECULE
121.49948
 113 117 0 0 0
SMALL
GASTEIGER

@<TRIPOS>ATOM
      1 H         -31.8200   -3.5460   50.6050 H       1  UNL1        0.0666
      2 O         -29.5770   -5.0020   52.5750 O.2     1  UNL1       -0.2708
      3 C         -30.0900   -4.5460   51.5620 C.2     1  UNL1        0.2372
      4 C         -31.4210   -3.8910   51.5490 C.2     1  UNL1       -0.0038
      5 C         -32.0910   -3.7170   52.6990 C.2     1  UNL1       -0.0789
      6 C         -33.4250   -3.0320   52.8010 C.3     1  UNL1       -0.0317
      7 C         -33.4010   -1.8030   53.7350 C.3     1  UNL1       -0.0407
      8 C         -32.4030   -0.7430   53.2470 C.3     1  UNL1       -0.0621
      9 C         -34.7950   -1.1560   53.8670 C.3     1  UNL1       -0.0530
     10 C         -35.8360   -2.0590   54.5150 C.3     1  UNL1       -0.0650
     11 H         -31.6630   -4.0810   53.6330 H       1  UNL1        0.0574
     12 H         -34.1360   -3.7750   53.1790 H       1  UNL1        0.0310
     13 H         -33.7820   -2.7320   51.8070 H       1  UNL1        0.0310
     14 H         -33.0790   -2.1270   54.7350 H       1  UNL1        0.0301
     15 H         -32.4180    0.1350   53.9020 H       1  UNL1        0.0233
     16 H         -31.3780   -1.1270   53.2460 H       1  UNL1        0.0233
     17 H         -32.6450   -0.4110   52.2310 H       1  UNL1        0.0233
     18 H         -35.1580   -0.8390   52.8810 H       1  UNL1        0.0265
     19 H         -34.7120   -0.2480   54.4780 H       1  UNL1        0.0265
     20 H         -35.4810   -2.4410   55.4770 H       1  UNL1        0.0230
     21 H         -36.7590   -1.4980   54.6930 H       1  UNL1        0.0230
     22 H         -36.0880   -2.9080   53.8740 H       1  UNL1        0.0230
     23 C         -27.1770   -3.8540   50.6000 C.2     1  UNL1        0.2344
     24 N         -29.4680   -4.5300   50.3410 N.am    1  UNL1       -0.3002
     25 O         -26.7380   -3.0340   49.7970 O.2     1  UNL1       -0.2737
     26 F         -31.3140   -7.2920   45.8870 F       1  UNL1       -0.2054
     27 F         -29.2720  -10.1300   49.0410 F       1  UNL1       -0.2054
     28 C         -28.0950   -5.0230   50.1930 C.3     1  UNL1        0.1036
     29 C         -27.7960   -5.4690   48.7550 C.3     1  UNL1       -0.0005
     30 C         -28.6670   -6.6170   48.2940 C.ar    1  UNL1       -0.0397
     31 C         -30.3180   -8.7420   47.4530 C.ar    1  UNL1        0.0088
     32 C         -29.6050   -6.4330   47.2680 C.ar    1  UNL1       -0.0230
     33 C         -28.5600   -7.8850   48.8850 C.ar    1  UNL1       -0.0230
     34 C         -30.4180   -7.4910   46.8630 C.ar    1  UNL1        0.1264
     35 C         -29.3840   -8.9270   48.4610 C.ar    1  UNL1        0.1264
     36 H         -29.8950   -4.0610   49.5540 H       1  UNL1        0.1498
     37 H         -27.9350   -5.8540   50.8910 H       1  UNL1        0.0598
     38 H         -27.9190   -4.6230   48.0650 H       1  UNL1        0.0336
     39 H         -26.7450   -5.7730   48.6680 H       1  UNL1        0.0336
     40 H         -30.9540   -9.5580   47.1330 H       1  UNL1        0.0675
     41 H         -29.7170   -5.4730   46.7720 H       1  UNL1        0.0649
     42 H         -27.8440   -8.0790   49.6790 H       1  UNL1        0.0649
     43 N         -27.0270   -3.7160   51.9570 N.am    1  UNL1       -0.2995
     44 C         -26.3610   -2.5690   52.5890 C.3     1  UNL1        0.1366
     45 C         -25.7300   -3.1190   53.8730 C.2     1  UNL1        0.2402
     46 O         -26.3740   -3.8870   54.5960 O.2     1  UNL1       -0.2734
     47 C         -27.4170   -1.4660   52.8870 C.3     1  UNL1        0.1270
     48 O         -27.7480   -0.6780   51.7040 O.3     1  UNL1       -0.4580
     49 C         -27.1260   -0.5300   54.0620 C.3     1  UNL1       -0.0254
     50 H         -27.5050   -4.3720   52.5800 H       1  UNL1        0.1496
     51 H         -25.5900   -2.2390   51.8950 H       1  UNL1        0.0632
     52 H         -28.3600   -1.9690   53.1400 H       1  UNL1        0.0755
     53 H         -26.1900    0.0190   53.9400 H       1  UNL1        0.0266
     54 H         -27.9180    0.2240   54.1440 H       1  UNL1        0.0266
     55 H         -27.0830   -1.0750   55.0100 H       1  UNL1        0.0266
     56 N         -24.4490   -2.7370   54.2060 N.am    1  UNL1       -0.2883
     57 C         -23.5890   -1.7140   53.5760 C.3     1  UNL1        0.1025
     58 C         -22.9010   -2.1750   52.2590 C.2     1  UNL1        0.2367
     59 O         -22.9820   -3.3530   51.9020 O.2     1  UNL1       -0.2735
     60 C         -22.5370   -1.4460   54.6630 C.3     1  UNL1       -0.0243
     61 C         -22.3960   -2.7920   55.3610 C.3     1  UNL1       -0.0350
     62 C         -23.8210   -3.3090   55.3850 C.3     1  UNL1        0.0156
     63 H         -24.1930   -0.8320   53.3690 H       1  UNL1        0.0597
     64 H         -21.5720   -1.0960   54.2930 H       1  UNL1        0.0288
     65 H         -22.9210   -0.7030   55.3740 H       1  UNL1        0.0288
     66 H         -21.7610   -3.4580   54.7640 H       1  UNL1        0.0281
     67 H         -21.9610   -2.7120   56.3610 H       1  UNL1        0.0281
     68 H         -23.8760   -4.4020   55.3630 H       1  UNL1        0.0465
     69 H         -24.3620   -2.9460   56.2660 H       1  UNL1        0.0465
     70 N         -22.1610   -1.2420   51.5250 N.am    1  UNL1       -0.2884
     71 O         -22.6870    2.3870   50.9110 O.2     1  UNL1       -0.2738
     72 C         -22.0770    0.2120   51.8080 C.3     1  UNL1        0.1025
     73 C         -22.7760    1.1640   50.8020 C.2     1  UNL1        0.2342
     74 C         -20.6070    0.6320   51.9920 C.3     1  UNL1       -0.0231
     75 C         -19.7290    0.1820   50.8140 C.3     1  UNL1       -0.0403
     76 C         -18.2680    0.5550   51.0570 C.3     1  UNL1       -0.0623
     77 C         -19.8760   -1.3300   50.5990 C.3     1  UNL1       -0.0345
     78 C         -21.3400   -1.7210   50.4070 C.3     1  UNL1        0.0158
     79 H         -22.5920    0.4240   52.7480 H       1  UNL1        0.0597
     80 H         -20.2200    0.1810   52.9150 H       1  UNL1        0.0290
     81 H         -20.5260    1.7180   52.1210 H       1  UNL1        0.0290
     82 H         -20.0630    0.7000   49.9050 H       1  UNL1        0.0299
     83 H         -17.8750    0.0660   51.9550 H       1  UNL1        0.0232
     84 H         -17.6450    0.2560   50.2080 H       1  UNL1        0.0232
     85 H         -18.1610    1.6370   51.1870 H       1  UNL1        0.0232
     86 H         -19.4700   -1.8680   51.4650 H       1  UNL1        0.0283
     87 H         -19.2970   -1.6450   49.7230 H       1  UNL1        0.0283
     88 H         -21.4080   -2.8080   50.3010 H       1  UNL1        0.0465
     89 H         -21.7230   -1.2880   49.4780 H       1  UNL1        0.0465
     90 N         -23.5400    0.5710   49.8290 N.am    1  UNL1       -0.3027
     91 C         -24.3280    1.3500   48.8830 C.3     1  UNL1        0.0968
     92 C         -25.2910    0.4150   48.1230 C.2     1  UNL1        0.2363
     93 O         -24.9070   -0.1990   47.1220 O.2     1  UNL1       -0.2736
     94 C         -23.4240    2.0640   47.8730 C.3     1  UNL1       -0.0381
     95 H         -23.7120   -0.4280   49.8960 H       1  UNL1        0.1495
     96 H         -24.8870    2.1090   49.4370 H       1  UNL1        0.0592
     97 H         -22.7930    2.8140   48.3600 H       1  UNL1        0.0252
     98 H         -24.0220    2.5740   47.1100 H       1  UNL1        0.0252
     99 H         -22.7580    1.3580   47.3630 H       1  UNL1        0.0252
    100 N         -26.5620    0.2100   48.6210 N.am    1  UNL1       -0.2865
    101 C         -27.2020    0.7620   49.8240 C.3     1  UNL1        0.1230
    102 C         -26.7530    0.0290   51.1050 C.2     1  UNL1        0.3282
    103 O         -25.6050    0.0670   51.5350 O.2     1  UNL1       -0.2487
    104 C         -28.6970    0.6520   49.5070 C.3     1  UNL1       -0.0225
    105 C         -28.7860   -0.6170   48.6680 C.3     1  UNL1       -0.0349
    106 C         -27.5060   -0.5830   47.8470 C.3     1  UNL1        0.0157
    107 H         -26.9360    1.8150   49.9550 H       1  UNL1        0.0616
    108 H         -29.3500    0.6250   50.3830 H       1  UNL1        0.0289
    109 H         -29.0030    1.5080   48.8910 H       1  UNL1        0.0289
    110 H         -28.8050   -1.4980   49.3170 H       1  UNL1        0.0281
    111 H         -29.6810   -0.6480   48.0400 H       1  UNL1        0.0281
    112 H         -27.1040   -1.5790   47.6400 H       1  UNL1        0.0465
    113 H         -27.6660   -0.0730   46.8900 H       1  UNL1        0.0465
@<TRIPOS>BOND
     1    26    34    1
     2    41    32    1
     3    34    32   ar
     4    34    31   ar
     5   113   106    1
     6    98    94    1
     7    93    92    2
     8    40    31    1
     9    32    30   ar
    10    99    94    1
    11    31    35   ar
    12   112   106    1
    13   106   100    1
    14   106   105    1
    15    94    97    1
    16    94    91    1
    17   111   105    1
    18    38    29    1
    19    92   100   am
    20    92    91    1
    21    30    29    1
    22    30    33   ar
    23    35    33   ar
    24    35    27    1
    25   100   101    1
    26    39    29    1
    27   105   110    1
    28   105   104    1
    29    29    28    1
    30    91    96    1
    31    91    90    1
    32    33    42    1
    33   109   104    1
    34    89    78    1
    35   104   101    1
    36   104   108    1
    37    36    24    1
    38    87    77    1
    39    25    23    2
    40   101   107    1
    41   101   102    1
    42    90    95    1
    43    90    73   am
    44    82    75    1
    45    28    24    1
    46    28    23    1
    47    28    37    1
    48    84    76    1
    49    88    78    1
    50    24     3   am
    51    78    77    1
    52    78    70    1
    53    77    75    1
    54    77    86    1
    55    23    43   am
    56     1     4    1
    57    73    71    2
    58    73    72    1
    59    75    76    1
    60    75    74    1
    61    76    85    1
    62    76    83    1
    63   102   103    2
    64   102    48    1
    65    70    72    1
    66    70    58   am
    67     4     3    1
    68     4     5    2
    69     3     2    2
    70    48    47    1
    71    13     6    1
    72    72    74    1
    73    72    79    1
    74    51    44    1
    75    59    58    2
    76    43    50    1
    77    43    44    1
    78    74    81    1
    79    74    80    1
    80    17     8    1
    81    58    57    1
    82    44    47    1
    83    44    45    1
    84     5     6    1
    85     5    11    1
    86     6    12    1
    87     6     7    1
    88    18     9    1
    89    47    52    1
    90    47    49    1
    91    16     8    1
    92     8     7    1
    93     8    15    1
    94    63    57    1
    95    57    56    1
    96    57    60    1
    97     7     9    1
    98     7    14    1
    99     9    19    1
   100     9    10    1
   101    45    56   am
   102    45    46    2
   103    22    10    1
   104    53    49    1
   105    49    54    1
   106    49    55    1
   107    56    62    1
   108    64    60    1
   109    10    21    1
   110    10    20    1
   111    60    61    1
   112    60    65    1
   113    66    61    1
   114    61    62    1
   115    61    67    1
   116    68    62    1
   117    62    69    1
