@<TRIPOS>MOLECULE
111.45879
 113 117 0 0 0
SMALL
GASTEIGER

@<TRIPOS>ATOM
      1 H         -26.0240    2.9120   46.9790 H       1  UNL1        0.0666
      2 O         -27.1250    4.6430   49.5900 O.2     1  UNL1       -0.2708
      3 C         -27.1470    3.9390   48.5880 C.2     1  UNL1        0.2372
      4 C         -25.9220    3.5590   47.8420 C.2     1  UNL1       -0.0038
      5 C         -24.7290    4.0260   48.2440 C.2     1  UNL1       -0.0789
      6 C         -23.4240    3.7370   47.5590 C.3     1  UNL1       -0.0317
      7 C         -22.4190    3.0040   48.4730 C.3     1  UNL1       -0.0407
      8 C         -22.9160    1.5920   48.8130 C.3     1  UNL1       -0.0621
      9 C         -21.0220    2.9060   47.8270 C.3     1  UNL1       -0.0530
     10 C         -20.3170    4.2490   47.6920 C.3     1  UNL1       -0.0650
     11 H         -24.6750    4.6810   49.1140 H       1  UNL1        0.0574
     12 H         -23.0130    4.7030   47.2440 H       1  UNL1        0.0310
     13 H         -23.5860    3.1550   46.6430 H       1  UNL1        0.0310
     14 H         -22.3220    3.5590   49.4160 H       1  UNL1        0.0301
     15 H         -22.1960    1.0710   49.4540 H       1  UNL1        0.0233
     16 H         -23.8670    1.6210   49.3540 H       1  UNL1        0.0233
     17 H         -23.0570    0.9930   47.9070 H       1  UNL1        0.0233
     18 H         -21.0940    2.4340   46.8400 H       1  UNL1        0.0265
     19 H         -20.3860    2.2570   48.4410 H       1  UNL1        0.0265
     20 H         -20.2660    4.7650   48.6570 H       1  UNL1        0.0230
     21 H         -19.2920    4.1000   47.3360 H       1  UNL1        0.0230
     22 H         -20.8200    4.9030   46.9750 H       1  UNL1        0.0230
     23 C         -30.5970    2.6310   48.1420 C.2     1  UNL1        0.2344
     24 N         -28.2940    3.4250   48.0540 N.am    1  UNL1       -0.3002
     25 O         -30.4920    2.0920   47.0400 O.2     1  UNL1       -0.2737
     26 F         -32.6650    6.0540   44.4340 F       1  UNL1       -0.2054
     27 F         -28.1140    7.2380   44.5920 F       1  UNL1       -0.2054
     28 C         -29.5940    3.6700   48.6650 C.3     1  UNL1        0.1036
     29 C         -30.1210    5.1070   48.5100 C.3     1  UNL1       -0.0005
     30 C         -30.2150    5.6310   47.0960 C.ar    1  UNL1       -0.0397
     31 C         -30.3900    6.6490   44.4740 C.ar    1  UNL1        0.0088
     32 C         -31.4230    5.5800   46.3880 C.ar    1  UNL1       -0.0230
     33 C         -29.0960    6.2010   46.4710 C.ar    1  UNL1       -0.0230
     34 C         -31.4990    6.0900   45.0920 C.ar    1  UNL1        0.1264
     35 C         -29.1940    6.6970   45.1720 C.ar    1  UNL1        0.1264
     36 H         -28.2640    2.7660   47.2750 H       1  UNL1        0.1498
     37 H         -29.4700    3.4760   49.7390 H       1  UNL1        0.0598
     38 H         -31.1110    5.1860   48.9790 H       1  UNL1        0.0336
     39 H         -29.4810    5.7940   49.0800 H       1  UNL1        0.0336
     40 H         -30.4610    7.0440   43.4690 H       1  UNL1        0.0675
     41 H         -32.3190    5.1480   46.8280 H       1  UNL1        0.0649
     42 H         -28.1420    6.2730   46.9880 H       1  UNL1        0.0649
     43 N         -31.6110    2.3220   49.0210 N.am    1  UNL1       -0.2995
     44 C         -32.5890    1.2710   48.7280 C.3     1  UNL1        0.1366
     45 C         -33.9720    1.9230   48.8170 C.2     1  UNL1        0.2402
     46 O         -34.3180    2.5040   49.8490 O.2     1  UNL1       -0.2734
     47 C         -32.4240    0.0710   49.6800 C.3     1  UNL1        0.1270
     48 O         -31.0890   -0.4310   49.4080 O.3     1  UNL1       -0.4580
     49 C         -33.4510   -1.0230   49.3840 C.3     1  UNL1       -0.0254
     50 H         -31.7520    2.8670   49.8650 H       1  UNL1        0.1496
     51 H         -32.3880    0.9140   47.7210 H       1  UNL1        0.0632
     52 H         -32.4850    0.3920   50.7270 H       1  UNL1        0.0755
     53 H         -33.3240   -1.4120   48.3680 H       1  UNL1        0.0266
     54 H         -33.3280   -1.8770   50.0570 H       1  UNL1        0.0266
     55 H         -34.4760   -0.6600   49.5000 H       1  UNL1        0.0266
     56 N         -34.7650    1.8860   47.6910 N.am    1  UNL1       -0.2883
     57 C         -34.5030    1.1540   46.4430 C.3     1  UNL1        0.1025
     58 C         -33.4370    1.8540   45.5560 C.2     1  UNL1        0.2367
     59 O         -33.3260    3.0810   45.5990 O.2     1  UNL1       -0.2735
     60 C         -35.8570    1.1500   45.7310 C.3     1  UNL1       -0.0243
     61 C         -36.5050    2.4490   46.2030 C.3     1  UNL1       -0.0350
     62 C         -36.0480    2.5630   47.6490 C.3     1  UNL1        0.0156
     63 H         -34.1880    0.1460   46.7150 H       1  UNL1        0.0597
     64 H         -35.7830    1.0960   44.6410 H       1  UNL1        0.0288
     65 H         -36.4560    0.2980   46.0770 H       1  UNL1        0.0288
     66 H         -36.1200    3.2920   45.6180 H       1  UNL1        0.0281
     67 H         -37.5940    2.4410   46.1070 H       1  UNL1        0.0281
     68 H         -35.9510    3.6000   47.9850 H       1  UNL1        0.0465
     69 H         -36.7290    2.0360   48.3270 H       1  UNL1        0.0465
     70 N         -32.6620    1.0720   44.6970 N.am    1  UNL1       -0.2884
     71 O         -31.9720   -2.4330   45.6620 O.2     1  UNL1       -0.2738
     72 C         -32.7370   -0.3990   44.6060 C.3     1  UNL1        0.1025
     73 C         -31.7780   -1.2250   45.5040 C.2     1  UNL1        0.2342
     74 C         -32.6640   -0.8950   43.1520 C.3     1  UNL1       -0.0231
     75 C         -31.5160   -0.2590   42.3640 C.3     1  UNL1       -0.0403
     76 C         -31.5310   -0.7380   40.9140 C.3     1  UNL1       -0.0623
     77 C         -31.6410    1.2640   42.4370 C.3     1  UNL1       -0.0345
     78 C         -31.6390    1.7430   43.8840 C.3     1  UNL1        0.0158
     79 H         -33.7320   -0.7010   44.9510 H       1  UNL1        0.0597
     80 H         -33.6130   -0.6460   42.6570 H       1  UNL1        0.0290
     81 H         -32.5760   -1.9880   43.1200 H       1  UNL1        0.0290
     82 H         -30.5620   -0.5630   42.8140 H       1  UNL1        0.0299
     83 H         -32.4640   -0.4610   40.4110 H       1  UNL1        0.0232
     84 H         -30.7000   -0.3000   40.3510 H       1  UNL1        0.0232
     85 H         -31.4330   -1.8280   40.8640 H       1  UNL1        0.0232
     86 H         -32.5700    1.5860   41.9500 H       1  UNL1        0.0283
     87 H         -30.8130    1.7380   41.8950 H       1  UNL1        0.0283
     88 H         -31.7750    2.8290   43.9000 H       1  UNL1        0.0465
     89 H         -30.6600    1.5450   44.3320 H       1  UNL1        0.0465
     90 N         -30.6750   -0.6060   46.0390 N.am    1  UNL1       -0.3027
     91 C         -29.6590   -1.3680   46.7700 C.3     1  UNL1        0.0968
     92 C         -28.6900   -0.4450   47.5480 C.2     1  UNL1        0.2363
     93 O         -28.0950    0.4760   46.9750 O.2     1  UNL1       -0.2736
     94 C         -28.8140   -2.2150   45.8180 C.3     1  UNL1       -0.0381
     95 H         -30.5960    0.4140   46.0480 H       1  UNL1        0.1495
     96 H         -30.1920   -2.0380   47.4470 H       1  UNL1        0.0592
     97 H         -29.4230   -2.9520   45.2850 H       1  UNL1        0.0252
     98 H         -28.0330   -2.7560   46.3650 H       1  UNL1        0.0252
     99 H         -28.3210   -1.5900   45.0640 H       1  UNL1        0.0252
    100 N         -28.4760   -0.6940   48.8910 N.am    1  UNL1       -0.2865
    101 C         -29.1040   -1.7090   49.7620 C.3     1  UNL1        0.1230
    102 C         -30.5240   -1.3370   50.2420 C.2     1  UNL1        0.3282
    103 O         -31.0940   -1.8560   51.1920 O.2     1  UNL1       -0.2487
    104 C         -28.1450   -1.7910   50.9520 C.3     1  UNL1       -0.0225
    105 C         -27.6320   -0.3610   51.0750 C.3     1  UNL1       -0.0349
    106 C         -27.4870    0.0770   49.6270 C.3     1  UNL1        0.0157
    107 H         -29.1700   -2.6650   49.2330 H       1  UNL1        0.0616
    108 H         -28.6050   -2.1450   51.8780 H       1  UNL1        0.0289
    109 H         -27.3080   -2.4580   50.7100 H       1  UNL1        0.0289
    110 H         -28.3780    0.2610   51.5840 H       1  UNL1        0.0281
    111 H         -26.6930   -0.2900   51.6310 H       1  UNL1        0.0281
    112 H         -27.6560    1.1480   49.5010 H       1  UNL1        0.0465
    113 H         -26.4970   -0.1730   49.2280 H       1  UNL1        0.0465
@<TRIPOS>BOND
     1    84    76    1
     2    83    76    1
     3    85    76    1
     4    76    75    1
     5    87    77    1
     6    86    77    1
     7    75    77    1
     8    75    82    1
     9    75    74    1
    10    77    78    1
    11    80    74    1
    12    81    74    1
    13    74    72    1
    14    40    31    1
    15    78    88    1
    16    78    89    1
    17    78    70    1
    18    26    34    1
    19    31    34   ar
    20    31    35   ar
    21    27    35    1
    22    72    70    1
    23    72    79    1
    24    72    73    1
    25    64    60    1
    26    70    58   am
    27    99    94    1
    28    34    32   ar
    29    35    33   ar
    30    97    94    1
    31    73    71    2
    32    73    90   am
    33    58    59    2
    34    58    57    1
    35    66    61    1
    36    60    65    1
    37    60    61    1
    38    60    57    1
    39    94    98    1
    40    94    91    1
    41    90    95    1
    42    90    91    1
    43    67    61    1
    44    61    62    1
    45    32    41    1
    46    32    30   ar
    47    57    63    1
    48    57    56    1
    49    33    42    1
    50    33    30   ar
    51    13     6    1
    52    91    96    1
    53    91    92    1
    54    18     9    1
    55    22    10    1
    56    93    92    2
    57     1     4    1
    58    25    23    2
    59    30    29    1
    60    12     6    1
    61    36    24    1
    62    21    10    1
    63    92   100   am
    64     6     5    1
    65     6     7    1
    66    62    56    1
    67    62    68    1
    68    62    69    1
    69    56    45   am
    70    10     9    1
    71    10    20    1
    72    51    44    1
    73     9    19    1
    74     9     7    1
    75     4     5    2
    76     4     3    1
    77    17     8    1
    78    24     3   am
    79    24    28    1
    80    23    28    1
    81    23    43   am
    82     5    11    1
    83    53    49    1
    84     7     8    1
    85     7    14    1
    86    29    28    1
    87    29    38    1
    88    29    39    1
    89     3     2    2
    90    28    37    1
    91    44    45    1
    92    44    43    1
    93    44    47    1
    94     8    16    1
    95     8    15    1
    96    45    46    2
    97   100   106    1
    98   100   101    1
    99    43    50    1
   100   113   106    1
   101   107   101    1
   102    49    55    1
   103    49    47    1
   104    49    54    1
   105    48    47    1
   106    48   102    1
   107   112   106    1
   108   106   105    1
   109    47    52    1
   110   101   102    1
   111   101   104    1
   112   102   103    2
   113   109   104    1
   114   104   105    1
   115   104   108    1
   116   105   110    1
   117   105   111    1
