@<TRIPOS>MOLECULE
120.26481
 113 117 0 0 0
SMALL
GASTEIGER

@<TRIPOS>ATOM
      1 H         -31.4890   -3.6550   49.8070 H       1  UNL1        0.0666
      2 O         -29.9900   -5.2080   52.3250 O.2     1  UNL1       -0.2708
      3 C         -30.1470   -4.6800   51.2320 C.2     1  UNL1        0.2372
      4 C         -31.3960   -3.9860   50.8340 C.2     1  UNL1       -0.0038
      5 C         -32.3590   -3.7430   51.7350 C.2     1  UNL1       -0.0789
      6 C         -33.6320   -3.0100   51.4130 C.3     1  UNL1       -0.0317
      7 C         -33.7690   -1.6690   52.1650 C.3     1  UNL1       -0.0407
      8 C         -32.6200   -0.7100   51.8190 C.3     1  UNL1       -0.0621
      9 C         -35.1100   -0.9720   51.8530 C.3     1  UNL1       -0.0530
     10 C         -36.3310   -1.7480   52.3270 C.3     1  UNL1       -0.0650
     11 H         -32.2340   -4.0780   52.7640 H       1  UNL1        0.0574
     12 H         -34.4590   -3.6770   51.6810 H       1  UNL1        0.0310
     13 H         -33.7120   -2.8340   50.3330 H       1  UNL1        0.0310
     14 H         -33.7250   -1.8630   53.2460 H       1  UNL1        0.0301
     15 H         -32.7490    0.2520   52.3270 H       1  UNL1        0.0233
     16 H         -31.6540   -1.1130   52.1360 H       1  UNL1        0.0233
     17 H         -32.5740   -0.5190   50.7410 H       1  UNL1        0.0233
     18 H         -35.1960   -0.7880   50.7750 H       1  UNL1        0.0265
     19 H         -35.1250    0.0100   52.3420 H       1  UNL1        0.0265
     20 H         -36.2520   -1.9960   53.3900 H       1  UNL1        0.0230
     21 H         -37.2340   -1.1440   52.1870 H       1  UNL1        0.0230
     22 H         -36.4660   -2.6740   51.7610 H       1  UNL1        0.0230
     23 C         -27.0730   -3.7710   51.0740 C.2     1  UNL1        0.2344
     24 N         -29.1620   -4.5910   50.2830 N.am    1  UNL1       -0.3002
     25 O         -26.3200   -3.0970   50.3760 O.2     1  UNL1       -0.2737
     26 F         -30.0370   -8.1750   46.3870 F       1  UNL1       -0.2054
     27 F         -27.5420  -10.4430   49.6750 F       1  UNL1       -0.2054
     28 C         -27.7930   -5.0320   50.5660 C.3     1  UNL1        0.1036
     29 C         -27.0980   -5.5850   49.3160 C.3     1  UNL1       -0.0005
     30 C         -27.6830   -6.8990   48.8530 C.ar    1  UNL1       -0.0397
     31 C         -28.8060   -9.3440   48.0190 C.ar    1  UNL1        0.0088
     32 C         -28.6080   -6.9390   47.8000 C.ar    1  UNL1       -0.0230
     33 C         -27.3310   -8.1000   49.4850 C.ar    1  UNL1       -0.0230
     34 C         -29.1560   -8.1560   47.3960 C.ar    1  UNL1        0.1264
     35 C         -27.8930   -9.3040   49.0620 C.ar    1  UNL1        0.1264
     36 H         -29.2930   -3.9250   49.5280 H       1  UNL1        0.1498
     37 H         -27.7970   -5.7780   51.3690 H       1  UNL1        0.0598
     38 H         -27.1450   -4.8570   48.4950 H       1  UNL1        0.0336
     39 H         -26.0280   -5.7330   49.5160 H       1  UNL1        0.0336
     40 H         -29.2380  -10.2850   47.6990 H       1  UNL1        0.0675
     41 H         -28.9150   -6.0320   47.2880 H       1  UNL1        0.0649
     42 H         -26.6240   -8.1150   50.3100 H       1  UNL1        0.0649
     43 N         -27.4650   -3.3810   52.3310 N.am    1  UNL1       -0.2995
     44 C         -27.2030   -2.0450   52.8770 C.3     1  UNL1        0.1366
     45 C         -27.1800   -2.2310   54.3990 C.2     1  UNL1        0.2402
     46 O         -28.0490   -2.9190   54.9480 O.2     1  UNL1       -0.2734
     47 C         -28.2970   -1.0720   52.3820 C.3     1  UNL1        0.1270
     48 O         -27.7990   -0.4310   51.1780 O.3     1  UNL1       -0.4580
     49 C         -28.6410    0.0710   53.3320 C.3     1  UNL1       -0.0254
     50 H         -28.1120   -3.9770   52.8560 H       1  UNL1        0.1496
     51 H         -26.2280   -1.7290   52.5030 H       1  UNL1        0.0632
     52 H         -29.2260   -1.6170   52.1750 H       1  UNL1        0.0755
     53 H         -27.7800    0.7230   53.5040 H       1  UNL1        0.0266
     54 H         -29.4130    0.7060   52.8830 H       1  UNL1        0.0266
     55 H         -29.0230   -0.2900   54.2910 H       1  UNL1        0.0266
     56 N         -26.1600   -1.6630   55.1330 N.am    1  UNL1       -0.2883
     57 C         -25.2250   -0.5870   54.7540 C.3     1  UNL1        0.1025
     58 C         -24.1190   -0.9960   53.7500 C.2     1  UNL1        0.2367
     59 O         -23.8640   -2.1870   53.5560 O.2     1  UNL1       -0.2735
     60 C         -24.6090   -0.1620   56.0970 C.3     1  UNL1       -0.0243
     61 C         -24.6910   -1.4210   56.9490 C.3     1  UNL1       -0.0350
     62 C         -26.0210   -2.0150   56.5350 C.3     1  UNL1        0.0156
     63 H         -25.8060    0.2210   54.3040 H       1  UNL1        0.0597
     64 H         -23.5800    0.1990   56.0330 H       1  UNL1        0.0288
     65 H         -25.2210    0.6260   56.5510 H       1  UNL1        0.0288
     66 H         -23.8730   -2.1030   56.6860 H       1  UNL1        0.0281
     67 H         -24.6350   -1.2160   58.0220 H       1  UNL1        0.0281
     68 H         -26.0650   -3.0990   56.6750 H       1  UNL1        0.0465
     69 H         -26.8510   -1.5550   57.0830 H       1  UNL1        0.0465
     70 N         -23.4470    0.0180   53.0600 N.am    1  UNL1       -0.2884
     71 O         -23.6530    3.6380   52.3950 O.2     1  UNL1       -0.2738
     72 C         -23.4270    1.4510   53.4370 C.3     1  UNL1        0.1025
     73 C         -23.9310    2.4410   52.3590 C.2     1  UNL1        0.2342
     74 C         -22.0170    1.8330   53.9250 C.3     1  UNL1       -0.0231
     75 C         -20.9330    1.4580   52.8990 C.3     1  UNL1       -0.0403
     76 C         -19.5410    1.7730   53.4420 C.3     1  UNL1       -0.0623
     77 C         -21.0470   -0.0280   52.5230 C.3     1  UNL1       -0.0345
     78 C         -22.4580   -0.3640   52.0490 C.3     1  UNL1        0.0158
     79 H         -24.1130    1.6160   54.2710 H       1  UNL1        0.0597
     80 H         -21.8120    1.3050   54.8660 H       1  UNL1        0.0290
     81 H         -21.9610    2.9050   54.1510 H       1  UNL1        0.0290
     82 H         -21.0840    2.0580   51.9920 H       1  UNL1        0.0299
     83 H         -19.3280    1.2010   54.3510 H       1  UNL1        0.0232
     84 H         -18.7720    1.5320   52.7010 H       1  UNL1        0.0232
     85 H         -19.4520    2.8380   53.6830 H       1  UNL1        0.0232
     86 H         -20.7980   -0.6500   53.3920 H       1  UNL1        0.0283
     87 H         -20.3280   -0.2720   51.7330 H       1  UNL1        0.0283
     88 H         -22.5240   -1.4310   51.8110 H       1  UNL1        0.0465
     89 H         -22.6870    0.1810   51.1260 H       1  UNL1        0.0465
     90 N         -24.8550    1.9340   51.4750 N.am    1  UNL1       -0.3027
     91 C         -25.5790    2.8000   50.5420 C.3     1  UNL1        0.0968
     92 C         -26.8100    2.0590   49.9860 C.2     1  UNL1        0.2363
     93 O         -27.9450    2.4290   50.3020 O.2     1  UNL1       -0.2736
     94 C         -24.6900    3.4070   49.4620 C.3     1  UNL1       -0.0381
     95 H         -25.0960    0.9500   51.5190 H       1  UNL1        0.1495
     96 H         -25.9780    3.6320   51.1380 H       1  UNL1        0.0592
     97 H         -24.1110    4.2440   49.8670 H       1  UNL1        0.0252
     98 H         -25.2840    3.7900   48.6270 H       1  UNL1        0.0252
     99 H         -23.9600    2.6910   49.0730 H       1  UNL1        0.0252
    100 N         -26.6280    0.9340   49.2090 N.am    1  UNL1       -0.2865
    101 C         -27.7820    0.1060   48.8330 C.3     1  UNL1        0.1230
    102 C         -28.3370   -0.7760   49.9740 C.2     1  UNL1        0.3282
    103 O         -29.1990   -1.6330   49.8030 O.2     1  UNL1       -0.2487
    104 C         -27.2730   -0.7360   47.6640 C.3     1  UNL1       -0.0225
    105 C         -25.7760   -0.8540   47.9200 C.3     1  UNL1       -0.0349
    106 C         -25.4130    0.4750   48.5580 C.3     1  UNL1        0.0157
    107 H         -28.6060    0.7600   48.5220 H       1  UNL1        0.0616
    108 H         -27.7520   -1.7150   47.5730 H       1  UNL1        0.0289
    109 H         -27.4340   -0.1930   46.7240 H       1  UNL1        0.0289
    110 H         -25.5710   -1.6690   48.6160 H       1  UNL1        0.0281
    111 H         -25.2050   -1.0480   47.0070 H       1  UNL1        0.0281
    112 H         -24.5880    0.3830   49.2680 H       1  UNL1        0.0465
    113 H         -25.1490    1.2070   47.7880 H       1  UNL1        0.0465
@<TRIPOS>BOND
     1    26    34    1
     2   109   104    1
     3   111   105    1
     4    41    32    1
     5    34    32   ar
     6    34    31   ar
     7   108   104    1
     8   104   105    1
     9   104   101    1
    10    40    31    1
    11   113   106    1
    12    32    30   ar
    13   105   106    1
    14   105   110    1
    15    31    35   ar
    16    38    29    1
    17   107   101    1
    18   106   100    1
    19   106   112    1
    20    98    94    1
    21   101   100    1
    22   101   102    1
    23    30    29    1
    24    30    33   ar
    25    35    33   ar
    26    35    27    1
    27    99    94    1
    28   100    92   am
    29    29    39    1
    30    29    28    1
    31    94    97    1
    32    94    91    1
    33    33    42    1
    34    36    24    1
    35   103   102    2
    36     1     4    1
    37   102    48    1
    38    92    93    2
    39    92    91    1
    40    24    28    1
    41    24     3   am
    42    13     6    1
    43    25    23    2
    44    91    96    1
    45    91    90    1
    46    28    23    1
    47    28    37    1
    48    17     8    1
    49    18     9    1
    50     4     3    1
    51     4     5    2
    52    23    43   am
    53    89    78    1
    54    48    47    1
    55     3     2    2
    56     6    12    1
    57     6     5    1
    58     6     7    1
    59    90    95    1
    60    90    73   am
    61    87    77    1
    62     5    11    1
    63    22    10    1
    64    88    78    1
    65     8    16    1
    66     8     7    1
    67     8    15    1
    68     9     7    1
    69     9    10    1
    70     9    19    1
    71    82    75    1
    72    78    77    1
    73    78    70    1
    74     7    14    1
    75    52    47    1
    76    21    10    1
    77    10    20    1
    78    43    50    1
    79    43    44    1
    80    73    71    2
    81    73    72    1
    82    47    44    1
    83    47    49    1
    84    51    44    1
    85    77    75    1
    86    77    86    1
    87    84    76    1
    88    44    45    1
    89    54    49    1
    90    75    76    1
    91    75    74    1
    92    70    72    1
    93    70    58   am
    94    49    53    1
    95    49    55    1
    96    72    74    1
    97    72    79    1
    98    76    85    1
    99    76    83    1
   100    59    58    2
   101    58    57    1
   102    74    81    1
   103    74    80    1
   104    63    57    1
   105    45    46    2
   106    45    56   am
   107    57    56    1
   108    57    60    1
   109    56    62    1
   110    64    60    1
   111    60    65    1
   112    60    61    1
   113    62    68    1
   114    62    61    1
   115    62    69    1
   116    66    61    1
   117    61    67    1
