@<TRIPOS>MOLECULE
114.62483
 113 117 0 0 0
SMALL
GASTEIGER

@<TRIPOS>ATOM
      1 H         -32.1690   -3.7300   49.8600 H       1  UNL1        0.0666
      2 O         -30.1750   -4.4940   52.4060 O.2     1  UNL1       -0.2708
      3 C         -30.6310   -4.4750   51.2700 C.2     1  UNL1        0.2372
      4 C         -31.8190   -3.6780   50.8820 C.2     1  UNL1       -0.0038
      5 C         -32.4170   -2.8840   51.7840 C.2     1  UNL1       -0.0789
      6 C         -33.5900   -1.9970   51.4750 C.3     1  UNL1       -0.0317
      7 C         -33.3150   -0.5070   51.7740 C.3     1  UNL1       -0.0407
      8 C         -32.1140    0.0180   50.9750 C.3     1  UNL1       -0.0621
      9 C         -34.5430    0.3760   51.4700 C.3     1  UNL1       -0.0530
     10 C         -35.7600    0.0560   52.3260 C.3     1  UNL1       -0.0650
     11 H         -32.0430   -2.8500   52.8080 H       1  UNL1        0.0574
     12 H         -34.4280   -2.3500   52.0860 H       1  UNL1        0.0310
     13 H         -33.8940   -2.1110   50.4270 H       1  UNL1        0.0310
     14 H         -33.0750   -0.4020   52.8410 H       1  UNL1        0.0301
     15 H         -31.9500    1.0830   51.1730 H       1  UNL1        0.0233
     16 H         -31.1920   -0.5050   51.2500 H       1  UNL1        0.0233
     17 H         -32.2690   -0.1070   49.8980 H       1  UNL1        0.0233
     18 H         -34.8150    0.2880   50.4110 H       1  UNL1        0.0265
     19 H         -34.2780    1.4270   51.6400 H       1  UNL1        0.0265
     20 H         -35.5090    0.0760   53.3910 H       1  UNL1        0.0230
     21 H         -36.5460    0.7980   52.1500 H       1  UNL1        0.0230
     22 H         -36.1760   -0.9260   52.0840 H       1  UNL1        0.0230
     23 C         -27.6350   -4.9150   50.3540 C.2     1  UNL1        0.2344
     24 N         -30.0540   -5.1340   50.2160 N.am    1  UNL1       -0.3002
     25 O         -26.8860   -4.7940   49.3840 O.2     1  UNL1       -0.2737
     26 F         -32.4330   -9.0750   47.0240 F       1  UNL1       -0.2054
     27 F         -31.2310  -10.6170   51.3080 F       1  UNL1       -0.2054
     28 C         -28.8190   -5.9060   50.3930 C.3     1  UNL1        0.1036
     29 C         -28.6510   -6.9730   49.2990 C.3     1  UNL1       -0.0005
     30 C         -29.7720   -7.9870   49.2560 C.ar    1  UNL1       -0.0397
     31 C         -31.8660   -9.8710   49.1670 C.ar    1  UNL1        0.0088
     32 C         -30.6080   -8.0760   48.1340 C.ar    1  UNL1       -0.0230
     33 C         -29.9930   -8.8630   50.3290 C.ar    1  UNL1       -0.0230
     34 C         -31.6420   -9.0110   48.1030 C.ar    1  UNL1        0.1264
     35 C         -31.0330   -9.7890   50.2730 C.ar    1  UNL1        0.1264
     36 H         -30.4460   -5.0530   49.2890 H       1  UNL1        0.1498
     37 H         -28.8350   -6.3770   51.3830 H       1  UNL1        0.0598
     38 H         -28.5670   -6.4880   48.3170 H       1  UNL1        0.0336
     39 H         -27.7070   -7.5120   49.4450 H       1  UNL1        0.0336
     40 H         -32.6710  -10.5950   49.1350 H       1  UNL1        0.0675
     41 H         -30.4690   -7.4290   47.2730 H       1  UNL1        0.0649
     42 H         -29.3650   -8.8380   51.2160 H       1  UNL1        0.0649
     43 N         -27.5270   -4.1340   51.4790 N.am    1  UNL1       -0.2995
     44 C         -26.4780   -3.1320   51.6700 C.3     1  UNL1        0.1366
     45 C         -25.9160   -3.3670   53.0770 C.2     1  UNL1        0.2402
     46 O         -26.5360   -2.9990   54.0770 O.2     1  UNL1       -0.2734
     47 C         -27.0260   -1.7130   51.4430 C.3     1  UNL1        0.1270
     48 O         -27.2050   -1.6410   50.0080 O.3     1  UNL1       -0.4580
     49 C         -26.0270   -0.6330   51.8530 C.3     1  UNL1       -0.0254
     50 H         -28.2210   -4.2490   52.2240 H       1  UNL1        0.1496
     51 H         -25.7110   -3.3080   50.9150 H       1  UNL1        0.0632
     52 H         -27.9900   -1.5720   51.9480 H       1  UNL1        0.0755
     53 H         -25.0700   -0.7710   51.3360 H       1  UNL1        0.0266
     54 H         -26.3890    0.3620   51.5740 H       1  UNL1        0.0266
     55 H         -25.8460   -0.6320   52.9310 H       1  UNL1        0.0266
     56 N         -24.7650   -4.1260   53.1750 N.am    1  UNL1       -0.2883
     57 C         -23.8820   -4.5570   52.0810 C.3     1  UNL1        0.1025
     58 C         -24.4620   -5.7370   51.2530 C.2     1  UNL1        0.2367
     59 O         -25.3080   -6.4910   51.7480 O.2     1  UNL1       -0.2735
     60 C         -22.6010   -4.9900   52.8000 C.3     1  UNL1       -0.0243
     61 C         -23.1040   -5.4710   54.1570 C.3     1  UNL1       -0.0350
     62 C         -24.2340   -4.5050   54.4700 C.3     1  UNL1        0.0156
     63 H         -23.7060   -3.6930   51.4350 H       1  UNL1        0.0597
     64 H         -22.0350   -5.7660   52.2770 H       1  UNL1        0.0288
     65 H         -21.9440   -4.1230   52.9410 H       1  UNL1        0.0288
     66 H         -23.4940   -6.4920   54.0690 H       1  UNL1        0.0281
     67 H         -22.3250   -5.4700   54.9250 H       1  UNL1        0.0281
     68 H         -25.0130   -4.9480   55.0970 H       1  UNL1        0.0465
     69 H         -23.8610   -3.5980   54.9590 H       1  UNL1        0.0465
     70 N         -23.9780   -5.9450   49.9630 N.am    1  UNL1       -0.2884
     71 O         -22.3880   -4.1370   47.1980 O.2     1  UNL1       -0.2738
     72 C         -22.8690   -5.2140   49.3210 C.3     1  UNL1        0.1025
     73 C         -23.2400   -4.4120   48.0440 C.2     1  UNL1        0.2342
     74 C         -21.7100   -6.1930   49.0470 C.3     1  UNL1       -0.0231
     75 C         -22.1730   -7.4180   48.2380 C.3     1  UNL1       -0.0403
     76 C         -21.0270   -8.4110   48.0560 C.3     1  UNL1       -0.0623
     77 C         -23.3710   -8.0880   48.9250 C.3     1  UNL1       -0.0345
     78 C         -24.4870   -7.0810   49.1920 C.3     1  UNL1        0.0158
     79 H         -22.4790   -4.4580   50.0060 H       1  UNL1        0.0597
     80 H         -21.3030   -6.5340   50.0080 H       1  UNL1        0.0290
     81 H         -20.8900   -5.6890   48.5220 H       1  UNL1        0.0290
     82 H         -22.4880   -7.0830   47.2410 H       1  UNL1        0.0299
     83 H         -20.6670   -8.7850   49.0210 H       1  UNL1        0.0232
     84 H         -21.3500   -9.2700   47.4590 H       1  UNL1        0.0232
     85 H         -20.1850   -7.9400   47.5390 H       1  UNL1        0.0232
     86 H         -23.0510   -8.5320   49.8760 H       1  UNL1        0.0283
     87 H         -23.7560   -8.9040   48.3020 H       1  UNL1        0.0283
     88 H         -25.3070   -7.5820   49.7140 H       1  UNL1        0.0465
     89 H         -24.8920   -6.7010   48.2480 H       1  UNL1        0.0465
     90 N         -24.5100   -3.8760   47.9910 N.am    1  UNL1       -0.3027
     91 C         -24.8880   -2.9610   46.9100 C.3     1  UNL1        0.0968
     92 C         -25.7800   -1.7950   47.4120 C.2     1  UNL1        0.2363
     93 O         -25.2370   -0.8250   47.9590 O.2     1  UNL1       -0.2736
     94 C         -25.3280   -3.7100   45.6600 C.3     1  UNL1       -0.0381
     95 H         -25.2250   -4.1700   48.6600 H       1  UNL1        0.1495
     96 H         -23.9690   -2.4370   46.6060 H       1  UNL1        0.0592
     97 H         -24.4710   -4.2180   45.2020 H       1  UNL1        0.0252
     98 H         -25.7470   -3.0300   44.9130 H       1  UNL1        0.0252
     99 H         -26.0580   -4.4930   45.8820 H       1  UNL1        0.0252
    100 N         -27.1550   -1.8630   47.3800 N.am    1  UNL1       -0.2865
    101 C         -27.9580   -0.7500   47.9270 C.3     1  UNL1        0.1230
    102 C         -27.9820   -0.6740   49.4680 C.2     1  UNL1        0.3282
    103 O         -28.6310    0.1420   50.1080 O.2     1  UNL1       -0.2487
    104 C         -29.3650   -1.0270   47.3970 C.3     1  UNL1       -0.0225
    105 C         -29.4090   -2.5490   47.3340 C.3     1  UNL1       -0.0349
    106 C         -28.0100   -2.9120   46.8570 C.3     1  UNL1        0.0157
    107 H         -27.5550    0.2010   47.5610 H       1  UNL1        0.0616
    108 H         -30.1670   -0.6170   48.0180 H       1  UNL1        0.0289
    109 H         -29.4700   -0.6170   46.3850 H       1  UNL1        0.0289
    110 H         -29.5830   -2.9550   48.3370 H       1  UNL1        0.0281
    111 H         -30.1910   -2.9280   46.6710 H       1  UNL1        0.0281
    112 H         -27.6980   -3.8970   47.2050 H       1  UNL1        0.0465
    113 H         -27.9600   -2.8760   45.7650 H       1  UNL1        0.0465
@<TRIPOS>BOND
     1    98    94    1
     2    97    94    1
     3    94    99    1
     4    94    91    1
     5   113   106    1
     6   109   104    1
     7    96    91    1
     8   111   105    1
     9   106   112    1
    10   106   105    1
    11   106   100    1
    12    91    92    1
    13    91    90    1
    14    26    34    1
    15    71    73    2
    16    82    75    1
    17    41    32    1
    18   105   104    1
    19   105   110    1
    20   100    92   am
    21   100   101    1
    22   104   101    1
    23   104   108    1
    24    92    93    2
    25    84    76    1
    26    85    76    1
    27   107   101    1
    28   101   102    1
    29    90    73   am
    30    90    95    1
    31    73    72    1
    32    76    75    1
    33    76    83    1
    34    34    32   ar
    35    34    31   ar
    36    32    30   ar
    37    75    77    1
    38    75    74    1
    39    89    78    1
    40    87    77    1
    41    38    29    1
    42    81    74    1
    43    77    78    1
    44    77    86    1
    45    74    72    1
    46    74    80    1
    47    40    31    1
    48    31    35   ar
    49    78    88    1
    50    78    70    1
    51    30    29    1
    52    30    33   ar
    53    36    24    1
    54    29    39    1
    55    29    28    1
    56    72    70    1
    57    72    79    1
    58    25    23    2
    59   102    48    1
    60   102   103    2
    61     1     4    1
    62    17     8    1
    63    70    58   am
    64    48    47    1
    65    24    28    1
    66    24     3   am
    67    35    33   ar
    68    35    27    1
    69    33    42    1
    70    23    28    1
    71    23    43   am
    72    28    37    1
    73    18     9    1
    74    13     6    1
    75     4     3    1
    76     4     5    2
    77    51    44    1
    78     8    15    1
    79     8    16    1
    80     8     7    1
    81    58    59    2
    82    58    57    1
    83     3     2    2
    84    53    49    1
    85    63    57    1
    86    47    44    1
    87    47    49    1
    88    47    52    1
    89     9    19    1
    90     9     7    1
    91     9    10    1
    92     6     7    1
    93     6     5    1
    94     6    12    1
    95    43    44    1
    96    43    50    1
    97    54    49    1
    98    44    45    1
    99     7    14    1
   100     5    11    1
   101    49    55    1
   102    57    60    1
   103    57    56    1
   104    22    10    1
   105    21    10    1
   106    64    60    1
   107    10    20    1
   108    60    65    1
   109    60    61    1
   110    45    56   am
   111    45    46    2
   112    56    62    1
   113    66    61    1
   114    61    62    1
   115    61    67    1
   116    62    69    1
   117    62    68    1
