@<TRIPOS>MOLECULE
123.37807
 113 117 0 0 0
SMALL
GASTEIGER

@<TRIPOS>ATOM
      1 H         -30.8500   -2.7210   48.6750 H       1  UNL1        0.0666
      2 O         -29.9000   -2.7660   51.8330 O.2     1  UNL1       -0.2708
      3 C         -30.0390   -3.1720   50.6850 C.2     1  UNL1        0.2372
      4 C         -31.0280   -2.6080   49.7370 C.2     1  UNL1       -0.0038
      5 C         -32.1170   -1.9800   50.2030 C.2     1  UNL1       -0.0789
      6 C         -33.1640   -1.3490   49.3290 C.3     1  UNL1       -0.0317
      7 C         -34.5230   -2.0810   49.3100 C.3     1  UNL1       -0.0407
      8 C         -34.3990   -3.4570   48.6440 C.3     1  UNL1       -0.0621
      9 C         -35.1890   -2.2310   50.6920 C.3     1  UNL1       -0.0530
     10 C         -35.4610   -0.9040   51.3870 C.3     1  UNL1       -0.0650
     11 H         -32.2750   -1.9010   51.2800 H       1  UNL1        0.0574
     12 H         -32.7920   -1.2720   48.2990 H       1  UNL1        0.0310
     13 H         -33.3060   -0.3140   49.6630 H       1  UNL1        0.0310
     14 H         -35.1960   -1.4820   48.6810 H       1  UNL1        0.0301
     15 H         -35.3860   -3.9130   48.5150 H       1  UNL1        0.0233
     16 H         -33.9420   -3.3700   47.6530 H       1  UNL1        0.0233
     17 H         -33.7900   -4.1440   49.2420 H       1  UNL1        0.0233
     18 H         -34.5800   -2.8640   51.3480 H       1  UNL1        0.0265
     19 H         -36.1480   -2.7500   50.5670 H       1  UNL1        0.0265
     20 H         -36.0480   -0.2380   50.7460 H       1  UNL1        0.0230
     21 H         -36.0270   -1.0730   52.3080 H       1  UNL1        0.0230
     22 H         -34.5330   -0.3950   51.6600 H       1  UNL1        0.0230
     23 C         -27.0240   -4.2730   51.2400 C.2     1  UNL1        0.2344
     24 N         -29.2620   -4.1520   50.1330 N.am    1  UNL1       -0.3002
     25 O         -25.9310   -4.8080   51.0820 O.2     1  UNL1       -0.2737
     26 F         -31.4640   -8.2000   47.2360 F       1  UNL1       -0.2054
     27 F         -31.8230   -9.0560   51.8530 F       1  UNL1       -0.2054
     28 C         -28.3590   -4.9910   50.9340 C.3     1  UNL1        0.1036
     29 C         -28.0840   -6.3410   50.2440 C.3     1  UNL1       -0.0005
     30 C         -29.3350   -7.1560   49.9960 C.ar    1  UNL1       -0.0397
     31 C         -31.6800   -8.6490   49.5380 C.ar    1  UNL1        0.0088
     32 C         -29.8340   -7.3220   48.6970 C.ar    1  UNL1       -0.0230
     33 C         -30.0210   -7.7550   51.0620 C.ar    1  UNL1       -0.0230
     34 C         -30.9980   -8.0610   48.4840 C.ar    1  UNL1        0.1264
     35 C         -31.1800   -8.4920   50.8220 C.ar    1  UNL1        0.1264
     36 H         -29.3940   -4.4020   49.1620 H       1  UNL1        0.1498
     37 H         -28.8460   -5.1640   51.9030 H       1  UNL1        0.0598
     38 H         -27.5640   -6.1720   49.2920 H       1  UNL1        0.0336
     39 H         -27.3990   -6.9470   50.8530 H       1  UNL1        0.0336
     40 H         -32.5820   -9.2220   49.3620 H       1  UNL1        0.0675
     41 H         -29.3290   -6.8900   47.8380 H       1  UNL1        0.0649
     42 H         -29.6650   -7.6630   52.0850 H       1  UNL1        0.0649
     43 N         -27.1580   -3.0460   51.8500 N.am    1  UNL1       -0.2995
     44 C         -26.0040   -2.2550   52.2790 C.3     1  UNL1        0.1366
     45 C         -25.3520   -2.8310   53.5530 C.2     1  UNL1        0.2402
     46 O         -24.1160   -2.8630   53.6220 O.2     1  UNL1       -0.2734
     47 C         -26.3330   -0.7660   52.4970 C.3     1  UNL1        0.1270
     48 O         -27.4650   -0.3970   51.6710 O.3     1  UNL1       -0.4580
     49 C         -25.1630    0.1330   52.1040 C.3     1  UNL1       -0.0254
     50 H         -28.0900   -2.6510   51.9490 H       1  UNL1        0.1496
     51 H         -25.2650   -2.3540   51.4730 H       1  UNL1        0.0632
     52 H         -26.5500   -0.5860   53.5510 H       1  UNL1        0.0755
     53 H         -24.9310    0.0310   51.0380 H       1  UNL1        0.0266
     54 H         -25.4190    1.1860   52.2680 H       1  UNL1        0.0266
     55 H         -24.2660   -0.1000   52.6850 H       1  UNL1        0.0266
     56 N         -26.1170   -3.2090   54.6380 N.am    1  UNL1       -0.2883
     57 C         -27.5530   -3.0120   54.9330 C.3     1  UNL1        0.1025
     58 C         -27.8330   -1.6550   55.6510 C.2     1  UNL1        0.2367
     59 O         -26.8870   -0.9860   56.0800 O.2     1  UNL1       -0.2735
     60 C         -27.8340   -4.1730   55.8920 C.3     1  UNL1       -0.0243
     61 C         -26.5590   -4.2520   56.7250 C.3     1  UNL1       -0.0350
     62 C         -25.4610   -3.9120   55.7310 C.3     1  UNL1        0.0156
     63 H         -28.1500   -3.0680   54.0290 H       1  UNL1        0.0597
     64 H         -28.7110   -4.0390   56.5260 H       1  UNL1        0.0288
     65 H         -27.9600   -5.1030   55.3240 H       1  UNL1        0.0288
     66 H         -26.5860   -3.5050   57.5270 H       1  UNL1        0.0281
     67 H         -26.4160   -5.2320   57.1880 H       1  UNL1        0.0281
     68 H         -24.6820   -3.2830   56.1740 H       1  UNL1        0.0465
     69 H         -24.9920   -4.8170   55.3270 H       1  UNL1        0.0465
     70 N         -29.1530   -1.2500   55.8680 N.am    1  UNL1       -0.2884
     71 O         -32.3430   -1.6770   53.9760 O.2     1  UNL1       -0.2738
     72 C         -30.3690   -1.9390   55.3730 C.3     1  UNL1        0.1025
     73 C         -31.2920   -1.1750   54.3790 C.2     1  UNL1        0.2342
     74 C         -31.2180   -2.4070   56.5760 C.3     1  UNL1       -0.0231
     75 C         -31.5080   -1.2610   57.5610 C.3     1  UNL1       -0.0403
     76 C         -32.2910   -1.7690   58.7690 C.3     1  UNL1       -0.0623
     77 C         -30.1940   -0.6050   58.0050 C.3     1  UNL1       -0.0345
     78 C         -29.3830   -0.1370   56.8000 C.3     1  UNL1        0.0158
     79 H         -30.0730   -2.8310   54.8170 H       1  UNL1        0.0597
     80 H         -30.6800   -3.2010   57.1090 H       1  UNL1        0.0290
     81 H         -32.1620   -2.8500   56.2370 H       1  UNL1        0.0290
     82 H         -32.1230   -0.5060   57.0540 H       1  UNL1        0.0299
     83 H         -31.7260   -2.5270   59.3220 H       1  UNL1        0.0232
     84 H         -32.5170   -0.9480   59.4570 H       1  UNL1        0.0232
     85 H         -33.2410   -2.2150   58.4560 H       1  UNL1        0.0232
     86 H         -29.5990   -1.3200   58.5870 H       1  UNL1        0.0283
     87 H         -30.4020    0.2500   58.6590 H       1  UNL1        0.0283
     88 H         -28.4400    0.2930   57.1520 H       1  UNL1        0.0465
     89 H         -29.9160    0.6650   56.2850 H       1  UNL1        0.0465
     90 N         -30.9100    0.0880   53.9940 N.am    1  UNL1       -0.3027
     91 C         -31.8300    0.9780   53.2870 C.3     1  UNL1        0.0968
     92 C         -31.1650    2.2060   52.6070 C.2     1  UNL1        0.2363
     93 O         -31.6000    3.3480   52.7890 O.2     1  UNL1       -0.2736
     94 C         -32.9320    1.4500   54.2430 C.3     1  UNL1       -0.0381
     95 H         -29.9790    0.4300   54.2390 H       1  UNL1        0.1495
     96 H         -32.3030    0.3980   52.4860 H       1  UNL1        0.0592
     97 H         -33.4820    0.6080   54.6760 H       1  UNL1        0.0252
     98 H         -33.6590    2.0850   53.7250 H       1  UNL1        0.0252
     99 H         -32.5090    2.0290   55.0730 H       1  UNL1        0.0252
    100 N         -30.1830    1.9930   51.6610 N.am    1  UNL1       -0.2865
    101 C         -29.5440    0.7310   51.2770 C.3     1  UNL1        0.1230
    102 C         -28.3850    0.4270   52.2400 C.2     1  UNL1        0.3282
    103 O         -28.3500    0.8080   53.4060 O.2     1  UNL1       -0.2487
    104 C         -29.0670    1.0220   49.8520 C.3     1  UNL1       -0.0225
    105 C         -28.6500    2.4880   49.9290 C.3     1  UNL1       -0.0349
    106 C         -29.6960    3.0980   50.8500 C.3     1  UNL1        0.0157
    107 H         -30.2540   -0.0940   51.3190 H       1  UNL1        0.0616
    108 H         -28.2570    0.3790   49.4970 H       1  UNL1        0.0289
    109 H         -29.9080    0.9200   49.1540 H       1  UNL1        0.0289
    110 H         -27.6540    2.5710   50.3820 H       1  UNL1        0.0281
    111 H         -28.6190    2.9730   48.9500 H       1  UNL1        0.0281
    112 H         -29.2880    3.8890   51.4870 H       1  UNL1        0.0465
    113 H         -30.5410    3.5040   50.2820 H       1  UNL1        0.0465
@<TRIPOS>BOND
     1    26    34    1
     2    16     8    1
     3    41    32    1
     4    12     6    1
     5    34    32   ar
     6    34    31   ar
     7    15     8    1
     8     8    17    1
     9     8     7    1
    10     1     4    1
    11    14     7    1
    12    32    30   ar
    13   111   105    1
    14   109   104    1
    15    36    24    1
    16    38    29    1
    17     7     6    1
    18     7     9    1
    19     6    13    1
    20     6     5    1
    21    40    31    1
    22   108   104    1
    23    31    35   ar
    24     4     5    2
    25     4     3    1
    26   104   105    1
    27   104   101    1
    28   105   110    1
    29   105   106    1
    30    30    29    1
    31    30    33   ar
    32    24     3   am
    33    24    28    1
    34     5    11    1
    35    29    39    1
    36    29    28    1
    37   113   106    1
    38    19     9    1
    39     3     2    2
    40     9    18    1
    41     9    10    1
    42    20    10    1
    43    35    33   ar
    44    35    27    1
    45   106   112    1
    46   106   100    1
    47    28    23    1
    48    28    37    1
    49    53    49    1
    50    33    42    1
    51    25    23    2
    52    23    43   am
    53   101   107    1
    54   101   100    1
    55   101   102    1
    56    10    22    1
    57    10    21    1
    58    51    44    1
    59   100    92   am
    60    48   102    1
    61    48    47    1
    62    43    50    1
    63    43    44    1
    64    49    54    1
    65    49    47    1
    66    49    55    1
    67   102   103    2
    68    44    47    1
    69    44    45    1
    70    96    91    1
    71    47    52    1
    72    92    93    2
    73    92    91    1
    74    91    90    1
    75    91    94    1
    76    45    46    2
    77    45    56   am
    78    98    94    1
    79    71    73    2
    80    90    95    1
    81    90    73   am
    82    63    57    1
    83    94    97    1
    84    94    99    1
    85    73    72    1
    86    56    57    1
    87    56    62    1
    88    79    72    1
    89    57    58    1
    90    57    60    1
    91    65    60    1
    92    69    62    1
    93    72    70    1
    94    72    74    1
    95    58    70   am
    96    58    59    2
    97    62    68    1
    98    62    61    1
    99    70    78    1
   100    60    64    1
   101    60    61    1
   102    81    74    1
   103    89    78    1
   104    74    80    1
   105    74    75    1
   106    61    67    1
   107    61    66    1
   108    78    88    1
   109    78    77    1
   110    82    75    1
   111    75    77    1
   112    75    76    1
   113    77    86    1
   114    77    87    1
   115    85    76    1
   116    76    83    1
   117    76    84    1
