@<TRIPOS>MOLECULE
119.96668
 113 117 0 0 0
SMALL
GASTEIGER

@<TRIPOS>ATOM
      1 H         -31.4860   -2.6140   50.8360 H       1  UNL1        0.0666
      2 O         -30.1770   -4.9370   52.8030 O.2     1  UNL1       -0.2708
      3 C         -30.3100   -4.2070   51.8300 C.2     1  UNL1        0.2372
      4 C         -31.4760   -3.3070   51.6670 C.2     1  UNL1       -0.0038
      5 C         -32.5040   -3.3940   52.5270 C.2     1  UNL1       -0.0789
      6 C         -33.7360   -2.5340   52.4620 C.3     1  UNL1       -0.0317
      7 C         -35.0140   -3.2900   52.0420 C.3     1  UNL1       -0.0407
      8 C         -35.3100   -4.4800   52.9660 C.3     1  UNL1       -0.0621
      9 C         -36.2460   -2.3590   52.0260 C.3     1  UNL1       -0.0530
     10 C         -36.1420   -1.2100   51.0330 C.3     1  UNL1       -0.0650
     11 H         -32.4610   -4.1110   53.3460 H       1  UNL1        0.0574
     12 H         -33.5550   -1.7080   51.7630 H       1  UNL1        0.0310
     13 H         -33.8860   -2.0780   53.4490 H       1  UNL1        0.0310
     14 H         -34.8690   -3.6850   51.0270 H       1  UNL1        0.0301
     15 H         -36.2510   -4.9660   52.6850 H       1  UNL1        0.0233
     16 H         -34.5270   -5.2420   52.9010 H       1  UNL1        0.0233
     17 H         -35.3920   -4.1600   54.0100 H       1  UNL1        0.0233
     18 H         -36.4210   -1.9510   53.0290 H       1  UNL1        0.0265
     19 H         -37.1350   -2.9480   51.7670 H       1  UNL1        0.0265
     20 H         -35.9020   -1.5750   50.0300 H       1  UNL1        0.0230
     21 H         -37.0970   -0.6750   50.9800 H       1  UNL1        0.0230
     22 H         -35.3800   -0.4850   51.3340 H       1  UNL1        0.0230
     23 C         -27.0020   -4.7680   51.2350 C.2     1  UNL1        0.2344
     24 N         -29.4160   -4.1380   50.7960 N.am    1  UNL1       -0.3002
     25 O         -26.0580   -5.5560   51.2200 O.2     1  UNL1       -0.2737
     26 F         -25.0070   -2.9950   46.6370 F       1  UNL1       -0.2054
     27 F         -29.5970   -2.4320   45.7730 F       1  UNL1       -0.2054
     28 C         -28.3680   -5.1480   50.6440 C.3     1  UNL1        0.1036
     29 C         -28.2320   -5.6480   49.1950 C.3     1  UNL1       -0.0005
     30 C         -27.9010   -4.5950   48.1620 C.ar    1  UNL1       -0.0397
     31 C         -27.2920   -2.6940   46.1740 C.ar    1  UNL1        0.0088
     32 C         -26.5700   -4.2480   47.8890 C.ar    1  UNL1       -0.0230
     33 C         -28.9230   -3.9670   47.4330 C.ar    1  UNL1       -0.0230
     34 C         -26.2820   -3.3110   46.8970 C.ar    1  UNL1        0.1264
     35 C         -28.6090   -3.0250   46.4550 C.ar    1  UNL1        0.1264
     36 H         -29.4470   -3.3580   50.1400 H       1  UNL1        0.1498
     37 H         -28.6780   -6.0200   51.2370 H       1  UNL1        0.0598
     38 H         -27.4710   -6.4380   49.1390 H       1  UNL1        0.0336
     39 H         -29.1720   -6.1340   48.9000 H       1  UNL1        0.0336
     40 H         -27.0550   -1.9700   45.4040 H       1  UNL1        0.0675
     41 H         -25.7450   -4.7080   48.4290 H       1  UNL1        0.0649
     42 H         -29.9680   -4.2100   47.6080 H       1  UNL1        0.0649
     43 N         -26.9030   -3.5040   51.7760 N.am    1  UNL1       -0.2995
     44 C         -25.6400   -3.0630   52.3770 C.3     1  UNL1        0.1366
     45 C         -25.4040   -3.7100   53.7630 C.2     1  UNL1        0.2402
     46 O         -24.2630   -4.1000   54.0460 O.2     1  UNL1       -0.2734
     47 C         -25.5000   -1.5350   52.4860 C.3     1  UNL1        0.1270
     48 O         -26.2180   -0.8320   51.4450 O.3     1  UNL1       -0.4580
     49 C         -24.0560   -1.0480   52.5990 C.3     1  UNL1       -0.0254
     50 H         -27.6660   -2.8560   51.6160 H       1  UNL1        0.1496
     51 H         -24.8460   -3.4430   51.7200 H       1  UNL1        0.0632
     52 H         -25.9980   -1.1950   53.3920 H       1  UNL1        0.0755
     53 H         -23.4370   -1.4030   51.7700 H       1  UNL1        0.0266
     54 H         -24.0190    0.0470   52.5800 H       1  UNL1        0.0266
     55 H         -23.5960   -1.3930   53.5300 H       1  UNL1        0.0266
     56 N         -26.3980   -3.7470   54.7230 N.am    1  UNL1       -0.2883
     57 C         -27.7370   -3.1210   54.7700 C.3     1  UNL1        0.1025
     58 C         -27.6540   -1.6500   55.2830 C.2     1  UNL1        0.2367
     59 O         -26.5970   -1.2180   55.7560 O.2     1  UNL1       -0.2735
     60 C         -28.4750   -3.9970   55.7860 C.3     1  UNL1       -0.0243
     61 C         -27.3900   -4.3440   56.7970 C.3     1  UNL1       -0.0350
     62 C         -26.1500   -4.5140   55.9360 C.3     1  UNL1        0.0156
     63 H         -28.2080   -3.1260   53.7900 H       1  UNL1        0.0597
     64 H         -29.3280   -3.5170   56.2700 H       1  UNL1        0.0288
     65 H         -28.8280   -4.9150   55.3010 H       1  UNL1        0.0288
     66 H         -27.2510   -3.5130   57.4990 H       1  UNL1        0.0281
     67 H         -27.6220   -5.2400   57.3790 H       1  UNL1        0.0281
     68 H         -25.2450   -4.1580   56.4400 H       1  UNL1        0.0465
     69 H         -26.0020   -5.5620   55.6510 H       1  UNL1        0.0465
     70 N         -28.7680   -0.8180   55.1950 N.am    1  UNL1       -0.2884
     71 O         -31.8140   -0.1830   53.3150 O.2     1  UNL1       -0.2738
     72 C         -30.1270   -1.2070   54.7610 C.3     1  UNL1        0.1025
     73 C         -30.6250   -0.4080   53.5290 C.2     1  UNL1        0.2342
     74 C         -31.1090   -1.0830   55.9380 C.3     1  UNL1       -0.0231
     75 C         -31.0550    0.3120   56.5880 C.3     1  UNL1       -0.0403
     76 C         -31.9650    0.3750   57.8130 C.3     1  UNL1       -0.0623
     77 C         -29.6100    0.6720   56.9630 C.3     1  UNL1       -0.0345
     78 C         -28.6790    0.5340   55.7610 C.3     1  UNL1        0.0158
     79 H         -30.1200   -2.2500   54.4350 H       1  UNL1        0.0597
     80 H         -30.8560   -1.8350   56.6960 H       1  UNL1        0.0290
     81 H         -32.1330   -1.3020   55.6110 H       1  UNL1        0.0290
     82 H         -31.4190    1.0530   55.8640 H       1  UNL1        0.0299
     83 H         -31.6520   -0.3420   58.5790 H       1  UNL1        0.0232
     84 H         -31.9480    1.3750   58.2580 H       1  UNL1        0.0232
     85 H         -33.0000    0.1470   57.5380 H       1  UNL1        0.0232
     86 H         -29.2610    0.0130   57.7680 H       1  UNL1        0.0283
     87 H         -29.5650    1.6990   57.3440 H       1  UNL1        0.0283
     88 H         -27.6560    0.7780   56.0640 H       1  UNL1        0.0465
     89 H         -28.9550    1.2510   54.9800 H       1  UNL1        0.0465
     90 N         -29.6580   -0.1340   52.5870 N.am    1  UNL1       -0.3027
     91 C         -30.0090    0.3240   51.2440 C.3     1  UNL1        0.0968
     92 C         -28.9310   -0.2260   50.2850 C.2     1  UNL1        0.2363
     93 O         -28.9670   -1.4340   49.9990 O.2     1  UNL1       -0.2736
     94 C         -30.3830    1.7950   51.1930 C.3     1  UNL1       -0.0381
     95 H         -28.6850   -0.2930   52.8250 H       1  UNL1        0.1495
     96 H         -30.9210   -0.2150   50.9500 H       1  UNL1        0.0592
     97 H         -31.3620    1.9540   51.6610 H       1  UNL1        0.0252
     98 H         -30.4530    2.1520   50.1610 H       1  UNL1        0.0252
     99 H         -29.6820    2.4250   51.7460 H       1  UNL1        0.0252
    100 N         -27.8300    0.5200   49.9380 N.am    1  UNL1       -0.2865
    101 C         -26.7200   -0.1210   49.2160 C.3     1  UNL1        0.1230
    102 C         -25.8370   -0.9770   50.1430 C.2     1  UNL1        0.3282
    103 O         -24.8910   -1.6500   49.7600 O.2     1  UNL1       -0.2487
    104 C         -25.9210    1.0550   48.6630 C.3     1  UNL1       -0.0225
    105 C         -26.0840    2.1130   49.7480 C.3     1  UNL1       -0.0349
    106 C         -27.5150    1.9100   50.2320 C.3     1  UNL1        0.0157
    107 H         -27.1160   -0.7700   48.4310 H       1  UNL1        0.0616
    108 H         -24.8700    0.8240   48.4660 H       1  UNL1        0.0289
    109 H         -26.3770    1.4120   47.7320 H       1  UNL1        0.0289
    110 H         -25.3800    1.9210   50.5660 H       1  UNL1        0.0281
    111 H         -25.9060    3.1290   49.3830 H       1  UNL1        0.0281
    112 H         -27.6020    2.1040   51.3040 H       1  UNL1        0.0465
    113 H         -28.2090    2.5460   49.6750 H       1  UNL1        0.0465
@<TRIPOS>BOND
     1    40    31    1
     2    27    35    1
     3    31    35   ar
     4    31    34   ar
     5    35    33   ar
     6    26    34    1
     7    34    32   ar
     8    33    42    1
     9    33    30   ar
    10   109   104    1
    11    32    30   ar
    12    32    41    1
    13    30    29    1
    14   107   101    1
    15   108   104    1
    16   104   101    1
    17   104   105    1
    18    39    29    1
    19    38    29    1
    20    29    28    1
    21   101   100    1
    22   101   102    1
    23   111   105    1
    24   113   106    1
    25   105   106    1
    26   105   110    1
    27   103   102    2
    28   100   106    1
    29   100    92   am
    30    93    92    2
    31    20    10    1
    32    36    24    1
    33   102    48    1
    34    98    94    1
    35   106   112    1
    36    92    91    1
    37    28    24    1
    38    28    23    1
    39    28    37    1
    40    24     3   am
    41     1     4    1
    42    96    91    1
    43    21    10    1
    44    14     7    1
    45    10    22    1
    46    10     9    1
    47    94    91    1
    48    94    97    1
    49    94    99    1
    50    25    23    2
    51    23    43   am
    52    91    90    1
    53    48    47    1
    54    50    43    1
    55     4     3    1
    56     4     5    2
    57    51    44    1
    58    12     6    1
    59    19     9    1
    60    53    49    1
    61    43    44    1
    62     3     2    2
    63     9     7    1
    64     9    18    1
    65     7     6    1
    66     7     8    1
    67    44    47    1
    68    44    45    1
    69     6     5    1
    70     6    13    1
    71    47    49    1
    72    47    52    1
    73     5    11    1
    74    54    49    1
    75    90    95    1
    76    90    73   am
    77    49    55    1
    78    15     8    1
    79    16     8    1
    80     8    17    1
    81    71    73    2
    82    73    72    1
    83    45    46    2
    84    45    56   am
    85    63    57    1
    86    79    72    1
    87    56    57    1
    88    56    62    1
    89    72    70    1
    90    72    74    1
    91    57    58    1
    92    57    60    1
    93    89    78    1
    94    70    58   am
    95    70    78    1
    96    58    59    2
    97    65    60    1
    98    81    74    1
    99    69    62    1
   100    78    88    1
   101    78    77    1
   102    60    64    1
   103    60    61    1
   104    82    75    1
   105    62    68    1
   106    62    61    1
   107    74    75    1
   108    74    80    1
   109    75    77    1
   110    75    76    1
   111    61    67    1
   112    61    66    1
   113    77    87    1
   114    77    86    1
   115    85    76    1
   116    76    84    1
   117    76    83    1
