@<TRIPOS>MOLECULE
134.52207
 113 117 0 0 0
SMALL
GASTEIGER

@<TRIPOS>ATOM
      1 H         -29.5600    1.9740   55.1320 H       1  UNL1        0.0666
      2 O         -31.9690    0.1130   53.8140 O.2     1  UNL1       -0.2708
      3 C         -30.8980    0.6960   53.9200 C.2     1  UNL1        0.2372
      4 C         -30.4560    1.3660   55.1680 C.2     1  UNL1       -0.0038
      5 C         -31.1570    1.2180   56.3030 C.2     1  UNL1       -0.0789
      6 C         -30.7760    1.8570   57.6090 C.3     1  UNL1       -0.0317
      7 C         -31.8330    2.8180   58.1970 C.3     1  UNL1       -0.0407
      8 C         -32.0560    4.0260   57.2790 C.3     1  UNL1       -0.0621
      9 C         -33.1870    2.1570   58.5250 C.3     1  UNL1       -0.0530
     10 C         -33.0820    1.0100   59.5200 C.3     1  UNL1       -0.0650
     11 H         -32.0450    0.5880   56.3030 H       1  UNL1        0.0574
     12 H         -29.8340    2.4090   57.4940 H       1  UNL1        0.0310
     13 H         -30.5610    1.0600   58.3300 H       1  UNL1        0.0310
     14 H         -31.4190    3.2040   59.1390 H       1  UNL1        0.0301
     15 H         -32.7060    4.7630   57.7640 H       1  UNL1        0.0233
     16 H         -31.1080    4.5220   57.0490 H       1  UNL1        0.0233
     17 H         -32.5290    3.7360   56.3350 H       1  UNL1        0.0233
     18 H         -33.6750    1.7990   57.6110 H       1  UNL1        0.0265
     19 H         -33.8550    2.9160   58.9530 H       1  UNL1        0.0265
     20 H         -32.5660    1.3260   60.4320 H       1  UNL1        0.0230
     21 H         -34.0830    0.6650   59.8010 H       1  UNL1        0.0230
     22 H         -32.5470    0.1560   59.0950 H       1  UNL1        0.0230
     23 C         -28.8160   -0.0620   50.9860 C.2     1  UNL1        0.2344
     24 N         -29.9820    0.7920   52.9090 N.am    1  UNL1       -0.3002
     25 O         -27.8210    0.5650   51.3490 O.2     1  UNL1       -0.2737
     26 F         -33.9620   -2.3560   48.7010 F       1  UNL1       -0.2054
     27 F         -31.3510    0.3480   45.8690 F       1  UNL1       -0.2054
     28 C         -30.2050    0.1680   51.6070 C.3     1  UNL1        0.1036
     29 C         -31.0830    1.0530   50.7060 C.3     1  UNL1       -0.0005
     30 C         -31.6460    0.3360   49.5010 C.ar    1  UNL1       -0.0397
     31 C         -32.6620   -1.0290   47.2550 C.ar    1  UNL1        0.0088
     32 C         -32.5820   -0.6980   49.6550 C.ar    1  UNL1       -0.0230
     33 C         -31.2420    0.6870   48.2050 C.ar    1  UNL1       -0.0230
     34 C         -33.0740   -1.3670   48.5350 C.ar    1  UNL1        0.1264
     35 C         -31.7490    0.0030   47.1010 C.ar    1  UNL1        0.1264
     36 H         -29.0850    1.2490   53.0460 H       1  UNL1        0.1498
     37 H         -30.6710   -0.8100   51.7830 H       1  UNL1        0.0598
     38 H         -31.9330    1.4510   51.2760 H       1  UNL1        0.0336
     39 H         -30.5100    1.9330   50.3820 H       1  UNL1        0.0336
     40 H         -33.0480   -1.5560   46.3920 H       1  UNL1        0.0675
     41 H         -32.9390   -0.9900   50.6400 H       1  UNL1        0.0649
     42 H         -30.5270    1.4880   48.0360 H       1  UNL1        0.0649
     43 N         -28.7660   -1.0200   50.0090 N.am    1  UNL1       -0.2995
     44 C         -27.5340   -1.3730   49.2830 C.3     1  UNL1        0.1366
     45 C         -28.0770   -1.8780   47.9300 C.2     1  UNL1        0.2402
     46 O         -28.9580   -2.7480   47.9140 O.2     1  UNL1       -0.2734
     47 C         -26.7050   -2.4130   50.0910 C.3     1  UNL1        0.1270
     48 O         -25.2630   -2.2540   49.9710 O.3     1  UNL1       -0.4580
     49 C         -27.1090   -3.8800   49.9550 C.3     1  UNL1       -0.0254
     50 H         -29.6140   -1.5070   49.7240 H       1  UNL1        0.1496
     51 H         -26.9540   -0.4560   49.1600 H       1  UNL1        0.0632
     52 H         -26.8680   -2.1750   51.1510 H       1  UNL1        0.0755
     53 H         -26.9510   -4.2620   48.9420 H       1  UNL1        0.0266
     54 H         -26.4950   -4.5010   50.6170 H       1  UNL1        0.0266
     55 H         -28.1590   -4.0260   50.2230 H       1  UNL1        0.0266
     56 N         -27.6610   -1.2750   46.7660 N.am    1  UNL1       -0.2883
     57 C         -26.6100   -0.2690   46.5810 C.3     1  UNL1        0.1025
     58 C         -27.0730    1.1840   46.8480 C.2     1  UNL1        0.2367
     59 O         -28.2710    1.4490   46.9610 O.2     1  UNL1       -0.2735
     60 C         -26.2270   -0.4310   45.1060 C.3     1  UNL1       -0.0243
     61 C         -27.5480   -0.8200   44.4510 C.3     1  UNL1       -0.0350
     62 C         -28.1940   -1.7210   45.4900 C.3     1  UNL1        0.0156
     63 H         -25.7820   -0.4950   47.2500 H       1  UNL1        0.0597
     64 H         -25.7960    0.4650   44.6490 H       1  UNL1        0.0288
     65 H         -25.5080   -1.2520   44.9970 H       1  UNL1        0.0288
     66 H         -28.1640    0.0720   44.2900 H       1  UNL1        0.0281
     67 H         -27.4150   -1.3200   43.4870 H       1  UNL1        0.0281
     68 H         -29.2870   -1.6590   45.4840 H       1  UNL1        0.0465
     69 H         -27.9020   -2.7680   45.3470 H       1  UNL1        0.0465
     70 N         -26.0940    2.1810   46.8940 N.am    1  UNL1       -0.2884
     71 O         -24.6590    2.7100   49.3970 O.2     1  UNL1       -0.2738
     72 C         -24.6510    1.9250   47.0860 C.3     1  UNL1        0.1025
     73 C         -24.3040    1.8520   48.5960 C.2     1  UNL1        0.2342
     74 C         -23.7670    2.9600   46.3790 C.3     1  UNL1       -0.0231
     75 C         -24.2120    4.4060   46.6350 C.3     1  UNL1       -0.0403
     76 C         -23.3690    5.3840   45.8180 C.3     1  UNL1       -0.0623
     77 C         -25.6970    4.5570   46.2980 C.3     1  UNL1       -0.0345
     78 C         -26.5480    3.5620   47.0770 C.3     1  UNL1        0.0158
     79 H         -24.4000    0.9540   46.6500 H       1  UNL1        0.0597
     80 H         -23.8060    2.7650   45.2990 H       1  UNL1        0.0290
     81 H         -22.7210    2.8350   46.6850 H       1  UNL1        0.0290
     82 H         -24.0640    4.6460   47.6950 H       1  UNL1        0.0299
     83 H         -23.4750    5.2020   44.7430 H       1  UNL1        0.0232
     84 H         -23.6720    6.4170   46.0180 H       1  UNL1        0.0232
     85 H         -22.3080    5.2900   46.0740 H       1  UNL1        0.0232
     86 H         -25.8500    4.3970   45.2230 H       1  UNL1        0.0283
     87 H         -26.0340    5.5760   46.5210 H       1  UNL1        0.0283
     88 H         -27.5900    3.6680   46.7540 H       1  UNL1        0.0465
     89 H         -26.5310    3.7880   48.1480 H       1  UNL1        0.0465
     90 N         -23.5550    0.7450   48.9630 N.am    1  UNL1       -0.3027
     91 C         -23.1640    0.5240   50.3580 C.3     1  UNL1        0.0968
     92 C         -22.2980   -0.7190   50.6950 C.2     1  UNL1        0.2363
     93 O         -21.5150   -0.6310   51.6530 O.2     1  UNL1       -0.2736
     94 C         -24.3500    0.5340   51.3300 C.3     1  UNL1       -0.0381
     95 H         -22.9790    0.3280   48.2470 H       1  UNL1        0.1495
     96 H         -22.5260    1.3840   50.6060 H       1  UNL1        0.0592
     97 H         -24.6780    1.5560   51.5430 H       1  UNL1        0.0252
     98 H         -24.0970    0.0780   52.2930 H       1  UNL1        0.0252
     99 H         -25.2090    0.0020   50.9200 H       1  UNL1        0.0252
    100 N         -22.4990   -1.9530   50.1100 N.am    1  UNL1       -0.2865
    101 C         -23.1360   -2.3280   48.8390 C.3     1  UNL1        0.1230
    102 C         -24.6590   -2.4970   48.7890 C.2     1  UNL1        0.3282
    103 O         -25.2450   -2.8150   47.7620 O.2     1  UNL1       -0.2487
    104 C         -22.4920   -3.6820   48.4990 C.3     1  UNL1       -0.0225
    105 C         -22.2530   -4.2970   49.8690 C.3     1  UNL1       -0.0349
    106 C         -21.8030   -3.1000   50.6850 C.3     1  UNL1        0.0157
    107 H         -22.8690   -1.5970   48.0730 H       1  UNL1        0.0616
    108 H         -23.1010   -4.3270   47.8590 H       1  UNL1        0.0289
    109 H         -21.5290   -3.5190   47.9980 H       1  UNL1        0.0289
    110 H         -23.1910   -4.7000   50.2690 H       1  UNL1        0.0281
    111 H         -21.5110   -5.1000   49.8540 H       1  UNL1        0.0281
    112 H         -22.0400   -3.2020   51.7490 H       1  UNL1        0.0465
    113 H         -20.7240   -2.9340   50.5790 H       1  UNL1        0.0465
@<TRIPOS>BOND
     1    67    61    1
     2    66    61    1
     3    61    60    1
     4    61    62    1
     5    64    60    1
     6    83    76    1
     7    65    60    1
     8    60    57    1
     9    86    77    1
    10    80    74    1
    11    69    62    1
    12    68    62    1
    13    62    56    1
    14    76    84    1
    15    76    85    1
    16    76    75    1
    17    27    35    1
    18    77    87    1
    19    77    75    1
    20    77    78    1
    21    74    75    1
    22    74    81    1
    23    74    72    1
    24    40    31    1
    25    57    56    1
    26    57    58    1
    27    57    63    1
    28    75    82    1
    29    79    72    1
    30    88    78    1
    31    56    45   am
    32    58    70   am
    33    58    59    2
    34    70    78    1
    35    70    72    1
    36    78    89    1
    37    72    73    1
    38    35    31   ar
    39    35    33   ar
    40    31    34   ar
    41   103   102    2
    42   108   104    1
    43    46    45    2
    44    45    44    1
    45   109   104    1
    46    42    33    1
    47   107   101    1
    48    33    30   ar
    49    95    90    1
    50   104   101    1
    51   104   105    1
    52    34    26    1
    53    34    32   ar
    54    73    90   am
    55    73    71    2
    56   102   101    1
    57   102    48    1
    58   101   100    1
    59    53    49    1
    60    90    91    1
    61    51    44    1
    62    44    43    1
    63    44    47    1
    64    30    32   ar
    65    30    29    1
    66    32    41    1
    67    50    43    1
    68   111   105    1
    69   105   110    1
    70   105   106    1
    71    49    47    1
    72    49    55    1
    73    49    54    1
    74    48    47    1
    75    43    23   am
    76    47    52    1
    77   100   106    1
    78   100    92   am
    79    91    96    1
    80    91    92    1
    81    91    94    1
    82    39    29    1
    83   113   106    1
    84   106   112    1
    85    92    93    2
    86    29    38    1
    87    29    28    1
    88    99    94    1
    89    23    25    2
    90    23    28    1
    91    94    97    1
    92    94    98    1
    93    28    37    1
    94    28    24    1
    95    24    36    1
    96    24     3   am
    97     2     3    2
    98     3     4    1
    99     1     4    1
   100     4     5    2
   101     5    11    1
   102     5     6    1
   103    17     8    1
   104    16     8    1
   105     8    15    1
   106     8     7    1
   107    12     6    1
   108     6     7    1
   109     6    13    1
   110    18     9    1
   111     7     9    1
   112     7    14    1
   113     9    19    1
   114     9    10    1
   115    22    10    1
   116    10    21    1
   117    10    20    1
