@<TRIPOS>MOLECULE
108.92991
 113 117 0 0 0
SMALL
GASTEIGER

@<TRIPOS>ATOM
      1 H         -21.0550   -7.4540   55.3620 H       1  UNL1        0.0666
      2 O         -19.9390   -5.6360   57.9050 O.2     1  UNL1       -0.2708
      3 C         -20.1980   -5.9600   56.7530 C.2     1  UNL1        0.2372
      4 C         -20.9250   -7.2070   56.4090 C.2     1  UNL1       -0.0038
      5 C         -21.4070   -7.9900   57.3880 C.2     1  UNL1       -0.0789
      6 C         -22.1420   -9.2800   57.1610 C.3     1  UNL1       -0.0317
      7 C         -23.6250   -9.2700   57.5930 C.3     1  UNL1       -0.0407
      8 C         -23.7740   -9.0280   59.1000 C.3     1  UNL1       -0.0621
      9 C         -24.4970   -8.2660   56.8160 C.3     1  UNL1       -0.0530
     10 C         -24.5550   -8.5440   55.3200 C.3     1  UNL1       -0.0650
     11 H         -21.2440   -7.7020   58.4270 H       1  UNL1        0.0574
     12 H         -21.6160  -10.0630   57.7220 H       1  UNL1        0.0310
     13 H         -22.0690   -9.5790   56.1080 H       1  UNL1        0.0310
     14 H         -24.0190  -10.2760   57.3950 H       1  UNL1        0.0301
     15 H         -24.8140   -9.1750   59.4110 H       1  UNL1        0.0233
     16 H         -23.1560   -9.7270   59.6720 H       1  UNL1        0.0233
     17 H         -23.4880   -8.0080   59.3790 H       1  UNL1        0.0233
     18 H         -24.1480   -7.2400   56.9810 H       1  UNL1        0.0265
     19 H         -25.5220   -8.3100   57.2070 H       1  UNL1        0.0265
     20 H         -24.8620   -9.5760   55.1240 H       1  UNL1        0.0230
     21 H         -25.2820   -7.8790   54.8430 H       1  UNL1        0.0230
     22 H         -23.5880   -8.3720   54.8400 H       1  UNL1        0.0230
     23 C         -19.3420   -3.1430   54.5040 C.2     1  UNL1        0.2344
     24 N         -19.8640   -5.2060   55.6610 N.am    1  UNL1       -0.3002
     25 O         -19.2960   -3.6860   53.4000 O.2     1  UNL1       -0.2737
     26 F         -17.0210   -0.5560   59.4200 F       1  UNL1       -0.2054
     27 F         -14.4980   -0.4590   55.4470 F       1  UNL1       -0.2054
     28 C         -19.1800   -3.9240   55.8160 C.3     1  UNL1        0.1036
     29 C         -17.6850   -4.1090   56.1260 C.3     1  UNL1       -0.0005
     30 C         -17.0060   -2.8400   56.5860 C.ar    1  UNL1       -0.0397
     31 C         -15.7510   -0.4680   57.4400 C.ar    1  UNL1        0.0088
     32 C         -17.3250   -2.2690   57.8270 C.ar    1  UNL1       -0.0230
     33 C         -16.0420   -2.2130   55.7840 C.ar    1  UNL1       -0.0230
     34 C         -16.7000   -1.0920   58.2350 C.ar    1  UNL1        0.1264
     35 C         -15.4260   -1.0410   56.2190 C.ar    1  UNL1        0.1264
     36 H         -20.1630   -5.4820   54.7240 H       1  UNL1        0.1498
     37 H         -19.6880   -3.3820   56.6230 H       1  UNL1        0.0598
     38 H         -17.5440   -4.8620   56.9120 H       1  UNL1        0.0336
     39 H         -17.1680   -4.5100   55.2440 H       1  UNL1        0.0336
     40 H         -15.2710    0.4460   57.7650 H       1  UNL1        0.0675
     41 H         -18.0540   -2.7340   58.4870 H       1  UNL1        0.0649
     42 H         -15.7600   -2.6230   54.8180 H       1  UNL1        0.0649
     43 N         -19.5520   -1.7940   54.6470 N.am    1  UNL1       -0.2995
     44 C         -19.6600   -0.8800   53.5110 C.3     1  UNL1        0.1366
     45 C         -18.4240    0.0270   53.5940 C.2     1  UNL1        0.2402
     46 O         -18.2530    0.7510   54.5790 O.2     1  UNL1       -0.2734
     47 C         -20.9690   -0.0600   53.5420 C.3     1  UNL1        0.1270
     48 O         -22.0710   -0.9230   53.1470 O.3     1  UNL1       -0.4580
     49 C         -20.9710    1.0770   52.5200 C.3     1  UNL1       -0.0254
     50 H         -19.5230   -1.3780   55.5740 H       1  UNL1        0.1496
     51 H         -19.6610   -1.4790   52.6010 H       1  UNL1        0.0632
     52 H         -21.1540    0.3680   54.5350 H       1  UNL1        0.0755
     53 H         -20.7860    0.6970   51.5100 H       1  UNL1        0.0266
     54 H         -21.9540    1.5620   52.4970 H       1  UNL1        0.0266
     55 H         -20.2230    1.8400   52.7530 H       1  UNL1        0.0266
     56 N         -17.5110   -0.0300   52.5650 N.am    1  UNL1       -0.2883
     57 C         -17.6220   -0.7890   51.3150 C.3     1  UNL1        0.1025
     58 C         -17.2860   -2.2970   51.4870 C.2     1  UNL1        0.2367
     59 O         -16.5010   -2.6560   52.3700 O.2     1  UNL1       -0.2735
     60 C         -16.5870   -0.1320   50.3980 C.3     1  UNL1       -0.0243
     61 C         -15.5090    0.3380   51.3710 C.3     1  UNL1       -0.0350
     62 C         -16.3070    0.7830   52.5870 C.3     1  UNL1        0.0156
     63 H         -18.6360   -0.6510   50.9370 H       1  UNL1        0.0597
     64 H         -16.1880   -0.8000   49.6290 H       1  UNL1        0.0288
     65 H         -17.0320    0.7380   49.9000 H       1  UNL1        0.0288
     66 H         -14.8530   -0.5000   51.6370 H       1  UNL1        0.0281
     67 H         -14.8860    1.1380   50.9630 H       1  UNL1        0.0281
     68 H         -15.7650    0.6510   53.5260 H       1  UNL1        0.0465
     69 H         -16.6100    1.8330   52.5020 H       1  UNL1        0.0465
     70 N         -17.8250   -3.2070   50.5740 N.am    1  UNL1       -0.2884
     71 O         -21.1920   -2.6540   49.1310 O.2     1  UNL1       -0.2738
     72 C         -18.8150   -2.8670   49.5330 C.3     1  UNL1        0.1025
     73 C         -20.3130   -3.0600   49.8940 C.2     1  UNL1        0.2342
     74 C         -18.4960   -3.5590   48.1960 C.3     1  UNL1       -0.0231
     75 C         -18.2350   -5.0590   48.3580 C.3     1  UNL1       -0.0403
     76 C         -17.8700   -5.6890   47.0160 C.3     1  UNL1       -0.0623
     77 C         -17.1170   -5.2690   49.3810 C.3     1  UNL1       -0.0345
     78 C         -17.4720   -4.6250   50.7170 C.3     1  UNL1        0.0158
     79 H         -18.7360   -1.7980   49.3200 H       1  UNL1        0.0597
     80 H         -17.6010   -3.0870   47.7680 H       1  UNL1        0.0290
     81 H         -19.3060   -3.3990   47.4750 H       1  UNL1        0.0290
     82 H         -19.1500   -5.5450   48.7230 H       1  UNL1        0.0299
     83 H         -16.9600   -5.2430   46.5990 H       1  UNL1        0.0232
     84 H         -17.6990   -6.7650   47.1250 H       1  UNL1        0.0232
     85 H         -18.6770   -5.5500   46.2890 H       1  UNL1        0.0232
     86 H         -16.1820   -4.8320   49.0060 H       1  UNL1        0.0283
     87 H         -16.9350   -6.3400   49.5300 H       1  UNL1        0.0283
     88 H         -16.6310   -4.7520   51.4060 H       1  UNL1        0.0465
     89 H         -18.3220   -5.1500   51.1630 H       1  UNL1        0.0465
     90 N         -20.6200   -3.7400   51.0460 N.am    1  UNL1       -0.3027
     91 C         -21.9950   -4.1110   51.3700 C.3     1  UNL1        0.0968
     92 C         -22.1550   -4.6390   52.8200 C.2     1  UNL1        0.2363
     93 O         -21.5240   -5.6290   53.2090 O.2     1  UNL1       -0.2736
     94 C         -22.4840   -5.2290   50.4410 C.3     1  UNL1       -0.0381
     95 H         -19.9010   -3.9150   51.7540 H       1  UNL1        0.1495
     96 H         -22.6150   -3.2330   51.1940 H       1  UNL1        0.0592
     97 H         -22.4990   -4.9080   49.3950 H       1  UNL1        0.0252
     98 H         -23.4980   -5.5450   50.7100 H       1  UNL1        0.0252
     99 H         -21.8330   -6.1090   50.5040 H       1  UNL1        0.0252
    100 N         -23.0670   -4.0210   53.6510 N.am    1  UNL1       -0.2865
    101 C         -23.6340   -2.6750   53.5380 C.3     1  UNL1        0.1230
    102 C         -22.6510   -1.6550   54.1390 C.2     1  UNL1        0.3282
    103 O         -22.3600   -1.5710   55.3260 O.2     1  UNL1       -0.2487
    104 C         -24.9070   -2.7590   54.3780 C.3     1  UNL1       -0.0225
    105 C         -24.5480   -3.7360   55.4940 C.3     1  UNL1       -0.0349
    106 C         -23.5320   -4.6780   54.8630 C.3     1  UNL1        0.0157
    107 H         -23.8740   -2.4010   52.5090 H       1  UNL1        0.0616
    108 H         -25.2410   -1.7920   54.7660 H       1  UNL1        0.0289
    109 H         -25.7190   -3.1850   53.7750 H       1  UNL1        0.0289
    110 H         -24.0940   -3.2040   56.3370 H       1  UNL1        0.0281
    111 H         -25.4230   -4.2690   55.8800 H       1  UNL1        0.0281
    112 H         -22.6910   -4.8740   55.5320 H       1  UNL1        0.0465
    113 H         -23.9850   -5.6340   54.5800 H       1  UNL1        0.0465
@<TRIPOS>BOND
     1    85    76    1
     2    83    76    1
     3    76    84    1
     4    76    75    1
     5    81    74    1
     6    80    74    1
     7    74    75    1
     8    74    72    1
     9    75    82    1
    10    75    77    1
    11    86    77    1
    12    71    73    2
    13    79    72    1
    14    77    87    1
    15    77    78    1
    16    97    94    1
    17    72    73    1
    18    72    70    1
    19    64    60    1
    20    73    90   am
    21    65    60    1
    22    60    57    1
    23    60    61    1
    24    94    99    1
    25    94    98    1
    26    94    91    1
    27    70    78    1
    28    70    58   am
    29    78    89    1
    30    78    88    1
    31    63    57    1
    32    67    61    1
    33    90    91    1
    34    90    95    1
    35    96    91    1
    36    57    58    1
    37    57    56    1
    38    91    92    1
    39    61    66    1
    40    61    62    1
    41    58    59    2
    42    53    49    1
    43    54    49    1
    44    69    62    1
    45   107   101    1
    46    49    55    1
    47    49    47    1
    48    56    62    1
    49    56    45   am
    50    62    68    1
    51    51    44    1
    52    92    93    2
    53    92   100   am
    54    48    47    1
    55    48   102    1
    56    25    23    2
    57    44    47    1
    58    44    45    1
    59    44    43    1
    60   101   100    1
    61   101   102    1
    62   101   104    1
    63    47    52    1
    64    45    46    2
    65   100   106    1
    66   109   104    1
    67   102   103    2
    68   104   108    1
    69   104   105    1
    70    23    43   am
    71    23    28    1
    72   113   106    1
    73    43    50    1
    74    36    24    1
    75    42    33    1
    76    22    10    1
    77    21    10    1
    78   106   105    1
    79   106   112    1
    80    20    10    1
    81    39    29    1
    82    10     9    1
    83     1     4    1
    84    27    35    1
    85   105   111    1
    86   105   110    1
    87    24    28    1
    88    24     3   am
    89    33    35   ar
    90    33    30   ar
    91    28    29    1
    92    28    37    1
    93    13     6    1
    94    29    30    1
    95    29    38    1
    96    35    31   ar
    97     4     3    1
    98     4     5    2
    99    30    32   ar
   100     3     2    2
   101     9    18    1
   102     9    19    1
   103     9     7    1
   104     6     5    1
   105     6     7    1
   106     6    12    1
   107     5    11    1
   108    14     7    1
   109    31    40    1
   110    31    34   ar
   111     7     8    1
   112    32    34   ar
   113    32    41    1
   114    34    26    1
   115     8    17    1
   116     8    15    1
   117     8    16    1
