@<TRIPOS>MOLECULE
131.88423
 113 117 0 0 0
SMALL
GASTEIGER

@<TRIPOS>ATOM
      1 H         -25.0350   -7.8450   41.3120 H       1  UNL1        0.0666
      2 O         -27.4830   -7.5090   43.5320 O.2     1  UNL1       -0.2708
      3 C         -26.4190   -7.8590   43.0380 C.2     1  UNL1        0.2372
      4 C         -26.0030   -7.5050   41.6580 C.2     1  UNL1       -0.0038
      5 C         -26.8080   -6.7820   40.8640 C.2     1  UNL1       -0.0789
      6 C         -26.4530   -6.3910   39.4560 C.3     1  UNL1       -0.0317
      7 C         -26.4420   -4.8650   39.2260 C.3     1  UNL1       -0.0407
      8 C         -25.4430   -4.1610   40.1540 C.3     1  UNL1       -0.0621
      9 C         -26.1000   -4.5110   37.7630 C.3     1  UNL1       -0.0530
     10 C         -27.1120   -5.0250   36.7490 C.3     1  UNL1       -0.0650
     11 H         -27.7810   -6.4590   41.2310 H       1  UNL1        0.0574
     12 H         -27.1950   -6.8610   38.8010 H       1  UNL1        0.0310
     13 H         -25.4780   -6.8110   39.1750 H       1  UNL1        0.0310
     14 H         -27.4420   -4.4690   39.4500 H       1  UNL1        0.0301
     15 H         -25.4220   -3.0840   39.9560 H       1  UNL1        0.0233
     16 H         -25.7140   -4.2890   41.2070 H       1  UNL1        0.0233
     17 H         -24.4290   -4.5500   40.0120 H       1  UNL1        0.0233
     18 H         -25.1060   -4.8980   37.5050 H       1  UNL1        0.0265
     19 H         -26.0470   -3.4200   37.6630 H       1  UNL1        0.0265
     20 H         -28.1270   -4.7070   37.0090 H       1  UNL1        0.0230
     21 H         -26.8780   -4.6310   35.7550 H       1  UNL1        0.0230
     22 H         -27.0950   -6.1160   36.6800 H       1  UNL1        0.0230
     23 C         -25.1920   -7.7920   45.9470 C.2     1  UNL1        0.2344
     24 N         -25.4710   -8.5890   43.7060 N.am    1  UNL1       -0.3002
     25 O         -24.0160   -7.6250   46.2590 O.2     1  UNL1       -0.2737
     26 F         -24.3570  -13.5220   41.8810 F       1  UNL1       -0.2054
     27 F         -28.0240  -13.8990   44.8120 F       1  UNL1       -0.2054
     28 C         -25.6630   -8.9840   45.1010 C.3     1  UNL1        0.1036
     29 C         -24.8510  -10.2340   45.4680 C.3     1  UNL1       -0.0005
     30 C         -25.3140  -11.4710   44.7310 C.ar    1  UNL1       -0.0397
     31 C         -26.2030  -13.7440   43.3270 C.ar    1  UNL1        0.0088
     32 C         -24.5990  -11.9540   43.6260 C.ar    1  UNL1       -0.0230
     33 C         -26.4790  -12.1430   45.1260 C.ar    1  UNL1       -0.0230
     34 C         -25.0500  -13.0790   42.9390 C.ar    1  UNL1        0.1264
     35 C         -26.9080  -13.2680   44.4230 C.ar    1  UNL1        0.1264
     36 H         -24.5550   -8.7260   43.3010 H       1  UNL1        0.1498
     37 H         -26.7310   -9.1560   45.2830 H       1  UNL1        0.0598
     38 H         -23.7830  -10.0730   45.2670 H       1  UNL1        0.0336
     39 H         -24.9200  -10.4220   46.5480 H       1  UNL1        0.0336
     40 H         -26.5470  -14.6170   42.7860 H       1  UNL1        0.0675
     41 H         -23.6890  -11.4650   43.2880 H       1  UNL1        0.0649
     42 H         -27.0640  -11.8030   45.9770 H       1  UNL1        0.0649
     43 N         -26.1690   -6.8510   46.1850 N.am    1  UNL1       -0.2995
     44 C         -25.9280   -5.6740   47.0080 C.3     1  UNL1        0.1366
     45 C         -26.8300   -5.7940   48.2510 C.2     1  UNL1        0.2402
     46 O         -28.0590   -5.8580   48.1330 O.2     1  UNL1       -0.2734
     47 C         -26.1600   -4.3570   46.2320 C.3     1  UNL1        0.1270
     48 O         -25.7410   -3.2130   47.0200 O.3     1  UNL1       -0.4580
     49 C         -27.6010   -4.0900   45.8030 C.3     1  UNL1       -0.0254
     50 H         -27.1090   -7.0140   45.8270 H       1  UNL1        0.1496
     51 H         -24.8840   -5.6920   47.3200 H       1  UNL1        0.0632
     52 H         -25.5650   -4.3870   45.3080 H       1  UNL1        0.0755
     53 H         -28.2390   -3.8410   46.6560 H       1  UNL1        0.0266
     54 H         -27.6320   -3.2130   45.1460 H       1  UNL1        0.0266
     55 H         -28.0310   -4.9350   45.2590 H       1  UNL1        0.0266
     56 N         -26.2400   -5.8880   49.4950 N.am    1  UNL1       -0.2883
     57 C         -24.8090   -5.9130   49.8260 C.3     1  UNL1        0.1025
     58 C         -24.1440   -7.2770   49.5000 C.2     1  UNL1        0.2367
     59 O         -24.8490   -8.2720   49.3030 O.2     1  UNL1       -0.2735
     60 C         -24.7980   -5.6650   51.3390 C.3     1  UNL1       -0.0243
     61 C         -26.0900   -6.3240   51.8110 C.3     1  UNL1       -0.0350
     62 C         -27.0640   -6.0290   50.6840 C.3     1  UNL1        0.0156
     63 H         -24.3050   -5.1150   49.2770 H       1  UNL1        0.0597
     64 H         -23.9270   -6.0740   51.8590 H       1  UNL1        0.0288
     65 H         -24.8430   -4.5870   51.5380 H       1  UNL1        0.0288
     66 H         -25.9430   -7.4060   51.9090 H       1  UNL1        0.0281
     67 H         -26.4350   -5.9410   52.7760 H       1  UNL1        0.0281
     68 H         -27.8090   -6.8200   50.5530 H       1  UNL1        0.0465
     69 H         -27.5850   -5.0780   50.8440 H       1  UNL1        0.0465
     70 N         -22.7510   -7.3470   49.5070 N.am    1  UNL1       -0.2884
     71 O         -20.6660   -6.3350   47.5980 O.2     1  UNL1       -0.2738
     72 C         -21.8240   -6.2160   49.7460 C.3     1  UNL1        0.1025
     73 C         -21.1820   -5.6260   48.4640 C.2     1  UNL1        0.2342
     74 C         -20.7130   -6.6250   50.7330 C.3     1  UNL1       -0.0231
     75 C         -20.0300   -7.9490   50.3570 C.3     1  UNL1       -0.0403
     76 C         -19.0220   -8.3600   51.4290 C.3     1  UNL1       -0.0623
     77 C         -21.0790   -9.0450   50.1490 C.3     1  UNL1       -0.0345
     78 C         -22.1290   -8.6190   49.1300 C.3     1  UNL1        0.0158
     79 H         -22.3840   -5.4170   50.2260 H       1  UNL1        0.0597
     80 H         -21.1600   -6.7270   51.7310 H       1  UNL1        0.0290
     81 H         -19.9550   -5.8360   50.8040 H       1  UNL1        0.0290
     82 H         -19.4770   -7.8120   49.4200 H       1  UNL1        0.0299
     83 H         -19.5090   -8.5180   52.3970 H       1  UNL1        0.0232
     84 H         -18.5160   -9.2910   51.1490 H       1  UNL1        0.0232
     85 H         -18.2560   -7.5880   51.5570 H       1  UNL1        0.0232
     86 H         -21.5740   -9.2700   51.1040 H       1  UNL1        0.0283
     87 H         -20.5970   -9.9700   49.8120 H       1  UNL1        0.0283
     88 H         -22.8760   -9.4150   49.0410 H       1  UNL1        0.0465
     89 H         -21.6840   -8.5050   48.1370 H       1  UNL1        0.0465
     90 N         -21.0890   -4.2730   48.3110 N.am    1  UNL1       -0.3027
     91 C         -21.6470   -3.1660   49.0870 C.3     1  UNL1        0.0968
     92 C         -21.5440   -1.8820   48.2280 C.2     1  UNL1        0.2363
     93 O         -20.4360   -1.4210   47.9370 O.2     1  UNL1       -0.2736
     94 C         -20.8740   -2.9280   50.3820 C.3     1  UNL1       -0.0381
     95 H         -20.6220   -4.0210   47.4420 H       1  UNL1        0.1495
     96 H         -22.6820   -3.4060   49.3270 H       1  UNL1        0.0592
     97 H         -21.0180   -3.7460   51.0930 H       1  UNL1        0.0252
     98 H         -21.2080   -2.0060   50.8700 H       1  UNL1        0.0252
     99 H         -19.7980   -2.8380   50.1950 H       1  UNL1        0.0252
    100 N         -22.6970   -1.3050   47.7390 N.am    1  UNL1       -0.2865
    101 C         -24.0900   -1.7390   47.9190 C.3     1  UNL1        0.1230
    102 C         -24.4050   -2.9480   47.0240 C.2     1  UNL1        0.3282
    103 O         -23.5620   -3.6480   46.4820 O.2     1  UNL1       -0.2487
    104 C         -24.8950   -0.5030   47.5110 C.3     1  UNL1       -0.0225
    105 C         -24.0360    0.1230   46.4190 C.3     1  UNL1       -0.0349
    106 C         -22.6200   -0.1030   46.9240 C.3     1  UNL1        0.0157
    107 H         -24.2700   -2.0210   48.9610 H       1  UNL1        0.0616
    108 H         -25.9100   -0.7140   47.1640 H       1  UNL1        0.0289
    109 H         -24.9650    0.1890   48.3600 H       1  UNL1        0.0289
    110 H         -24.1880   -0.4100   45.4730 H       1  UNL1        0.0281
    111 H         -24.2590    1.1810   46.2540 H       1  UNL1        0.0281
    112 H         -21.8970   -0.2270   46.1120 H       1  UNL1        0.0465
    113 H         -22.2890    0.7190   47.5680 H       1  UNL1        0.0465
@<TRIPOS>BOND
     1    21    10    1
     2    22    10    1
     3    10    20    1
     4    10     9    1
     5    18     9    1
     6    19     9    1
     7     9     7    1
     8    12     6    1
     9    13     6    1
    10     7    14    1
    11     7     6    1
    12     7     8    1
    13     6     5    1
    14    15     8    1
    15    17     8    1
    16     8    16    1
    17     5    11    1
    18     5     4    2
    19     1     4    1
    20     4     3    1
    21    26    34    1
    22    40    31    1
    23    34    31   ar
    24    34    32   ar
    25     3     2    2
    26     3    24   am
    27    41    32    1
    28    36    24    1
    29    31    35   ar
    30    32    30   ar
    31    24    28    1
    32    35    27    1
    33    35    33   ar
    34    30    33   ar
    35    30    29    1
    36    28    37    1
    37    28    29    1
    38    28    23    1
    39    33    42    1
    40    54    49    1
    41    55    49    1
    42    38    29    1
    43    52    47    1
    44    29    39    1
    45   110   105    1
    46    49    47    1
    47    49    53    1
    48    50    43    1
    49    23    43   am
    50    23    25    2
    51   112   106    1
    52    43    44    1
    53    47    44    1
    54    47    48    1
    55   111   105    1
    56   105   106    1
    57   105   104    1
    58   103   102    2
    59   106   113    1
    60   106   100    1
    61    44    51    1
    62    44    45    1
    63    48   102    1
    64   102   101    1
    65   108   104    1
    66    95    90    1
    67   104   101    1
    68   104   109    1
    69    71    73    2
    70   100   101    1
    71   100    92   am
    72   101   107    1
    73    93    92    2
    74    46    45    2
    75    89    78    1
    76    92    91    1
    77    45    56   am
    78    90    73   am
    79    90    91    1
    80    73    72    1
    81    88    78    1
    82    91    96    1
    83    91    94    1
    84    78    70    1
    85    78    77    1
    86    63    57    1
    87    59    58    2
    88    82    75    1
    89    56    57    1
    90    56    62    1
    91    58    70   am
    92    58    57    1
    93    70    72    1
    94    72    79    1
    95    72    74    1
    96    87    77    1
    97    57    60    1
    98    77    75    1
    99    77    86    1
   100    99    94    1
   101    75    74    1
   102    75    76    1
   103    94    98    1
   104    94    97    1
   105    68    62    1
   106    62    69    1
   107    62    61    1
   108    74    81    1
   109    74    80    1
   110    84    76    1
   111    60    65    1
   112    60    61    1
   113    60    64    1
   114    76    85    1
   115    76    83    1
   116    61    66    1
   117    61    67    1
