@<TRIPOS>MOLECULE
111.35423
 113 117 0 0 0
SMALL
GASTEIGER

@<TRIPOS>ATOM
      1 H         -28.7430   -7.9340   51.2440 H       1  UNL1        0.0666
      2 O         -29.6790   -6.1890   53.9070 O.2     1  UNL1       -0.2708
      3 C         -29.0710   -6.4970   52.8920 C.2     1  UNL1        0.2372
      4 C         -29.3940   -7.6980   52.0770 C.2     1  UNL1       -0.0038
      5 C         -30.4500   -8.4730   52.3680 C.2     1  UNL1       -0.0789
      6 C         -30.8020   -9.7210   51.6050 C.3     1  UNL1       -0.0317
      7 C         -32.1530   -9.6360   50.8630 C.3     1  UNL1       -0.0407
      8 C         -32.1470   -8.5110   49.8190 C.3     1  UNL1       -0.0621
      9 C         -32.5030  -10.9650   50.1610 C.3     1  UNL1       -0.0530
     10 C         -32.7350  -12.1270   51.1170 C.3     1  UNL1       -0.0650
     11 H         -31.0910   -8.2170   53.2110 H       1  UNL1        0.0574
     12 H         -30.8260  -10.5390   52.3330 H       1  UNL1        0.0310
     13 H         -30.0070   -9.9690   50.8890 H       1  UNL1        0.0310
     14 H         -32.9440   -9.4120   51.5920 H       1  UNL1        0.0301
     15 H         -33.0980   -8.4800   49.2760 H       1  UNL1        0.0233
     16 H         -32.0100   -7.5310   50.2860 H       1  UNL1        0.0233
     17 H         -31.3460   -8.6560   49.0860 H       1  UNL1        0.0233
     18 H         -31.7110  -11.2360   49.4520 H       1  UNL1        0.0265
     19 H         -33.4190  -10.8290   49.5720 H       1  UNL1        0.0265
     20 H         -33.4870  -11.8720   51.8710 H       1  UNL1        0.0230
     21 H         -33.0940  -13.0010   50.5630 H       1  UNL1        0.0230
     22 H         -31.8140  -12.4210   51.6280 H       1  UNL1        0.0230
     23 C         -26.6980   -3.8310   51.9260 C.2     1  UNL1        0.2344
     24 N         -28.0190   -5.7880   52.3830 N.am    1  UNL1       -0.3002
     25 O         -25.5180   -3.5020   52.0010 O.2     1  UNL1       -0.2737
     26 F         -27.9760   -1.3740   57.3430 F       1  UNL1       -0.2054
     27 F         -23.4650   -1.6440   56.0210 F       1  UNL1       -0.2054
     28 C         -27.4900   -4.5750   53.0240 C.3     1  UNL1        0.1036
     29 C         -26.6320   -4.9190   54.2490 C.3     1  UNL1       -0.0005
     30 C         -26.3110   -3.7250   55.1170 C.ar    1  UNL1       -0.0397
     31 C         -25.7120   -1.4800   56.7060 C.ar    1  UNL1        0.0088
     32 C         -27.3150   -3.0880   55.8610 C.ar    1  UNL1       -0.0230
     33 C         -25.0010   -3.2310   55.1910 C.ar    1  UNL1       -0.0230
     34 C         -27.0060   -1.9750   56.6410 C.ar    1  UNL1        0.1264
     35 C         -24.7180   -2.1170   55.9780 C.ar    1  UNL1        0.1264
     36 H         -27.5980   -6.0770   51.4980 H       1  UNL1        0.1498
     37 H         -28.3470   -3.9520   53.3070 H       1  UNL1        0.0598
     38 H         -27.1460   -5.6550   54.8820 H       1  UNL1        0.0336
     39 H         -25.7040   -5.4110   53.9320 H       1  UNL1        0.0336
     40 H         -25.4840   -0.6110   57.3100 H       1  UNL1        0.0675
     41 H         -28.3420   -3.4470   55.8410 H       1  UNL1        0.0649
     42 H         -24.1970   -3.6950   54.6230 H       1  UNL1        0.0649
     43 N         -27.4590   -3.5720   50.8070 N.am    1  UNL1       -0.2995
     44 C         -26.9390   -2.9300   49.6020 C.3     1  UNL1        0.1366
     45 C         -27.9110   -1.7700   49.3400 C.2     1  UNL1        0.2402
     46 O         -29.0960   -2.0080   49.0810 O.2     1  UNL1       -0.2734
     47 C         -26.8960   -3.9240   48.4150 C.3     1  UNL1        0.1270
     48 O         -25.7360   -4.7950   48.5400 O.3     1  UNL1       -0.4580
     49 C         -26.7030   -3.2150   47.0750 C.3     1  UNL1       -0.0254
     50 H         -28.4530   -3.7880   50.8360 H       1  UNL1        0.1496
     51 H         -25.9280   -2.5820   49.8050 H       1  UNL1        0.0632
     52 H         -27.8100   -4.5300   48.3630 H       1  UNL1        0.0755
     53 H         -25.8050   -2.5870   47.0910 H       1  UNL1        0.0266
     54 H         -26.5570   -3.9490   46.2750 H       1  UNL1        0.0266
     55 H         -27.5630   -2.5930   46.8100 H       1  UNL1        0.0266
     56 N         -27.4470   -0.4820   49.4810 N.am    1  UNL1       -0.2883
     57 C         -26.0630   -0.0450   49.7060 C.3     1  UNL1        0.1025
     58 C         -25.5970   -0.2300   51.1780 C.2     1  UNL1        0.2367
     59 O         -26.4280   -0.2890   52.0880 O.2     1  UNL1       -0.2735
     60 C         -26.0930    1.4460   49.3520 C.3     1  UNL1       -0.0243
     61 C         -27.5120    1.8640   49.7240 C.3     1  UNL1       -0.0350
     62 C         -28.3430    0.6520   49.3370 C.3     1  UNL1        0.0156
     63 H         -25.4220   -0.6060   49.0240 H       1  UNL1        0.0597
     64 H         -25.3400    2.0430   49.8740 H       1  UNL1        0.0288
     65 H         -25.9460    1.5740   48.2730 H       1  UNL1        0.0288
     66 H         -27.5780    2.0380   50.8050 H       1  UNL1        0.0281
     67 H         -27.8350    2.7760   49.2140 H       1  UNL1        0.0281
     68 H         -29.2310    0.5270   49.9650 H       1  UNL1        0.0465
     69 H         -28.6570    0.7020   48.2890 H       1  UNL1        0.0465
     70 N         -24.2190   -0.2690   51.4330 N.am    1  UNL1       -0.2884
     71 O         -22.6740   -1.7700   48.5140 O.2     1  UNL1       -0.2738
     72 C         -23.1980   -0.3080   50.3650 C.3     1  UNL1        0.1025
     73 C         -23.0000   -1.6910   49.7000 C.2     1  UNL1        0.2342
     74 C         -21.8370    0.2720   50.7770 C.3     1  UNL1       -0.0231
     75 C         -21.3910   -0.1750   52.1700 C.3     1  UNL1       -0.0403
     76 C         -20.0550    0.4670   52.5410 C.3     1  UNL1       -0.0623
     77 C         -22.4770    0.2080   53.1720 C.3     1  UNL1       -0.0345
     78 C         -23.7990   -0.4640   52.8250 C.3     1  UNL1        0.0158
     79 H         -23.5590    0.3320   49.5520 H       1  UNL1        0.0597
     80 H         -21.9150    1.3680   50.7660 H       1  UNL1        0.0290
     81 H         -21.0700    0.0090   50.0380 H       1  UNL1        0.0290
     82 H         -21.2560   -1.2630   52.1790 H       1  UNL1        0.0299
     83 H         -20.1250    1.5600   52.5520 H       1  UNL1        0.0232
     84 H         -19.7300    0.1380   53.5340 H       1  UNL1        0.0232
     85 H         -19.2770    0.1850   51.8230 H       1  UNL1        0.0232
     86 H         -22.6140    1.2970   53.1770 H       1  UNL1        0.0283
     87 H         -22.1780   -0.0810   54.1860 H       1  UNL1        0.0283
     88 H         -24.5710   -0.0900   53.5060 H       1  UNL1        0.0465
     89 H         -23.7230   -1.5390   53.0040 H       1  UNL1        0.0465
     90 N         -23.0690   -2.7940   50.5070 N.am    1  UNL1       -0.3027
     91 C         -22.7870   -4.1390   50.0210 C.3     1  UNL1        0.0968
     92 C         -23.1480   -5.1730   51.1100 C.2     1  UNL1        0.2363
     93 O         -22.7560   -5.0200   52.2710 O.2     1  UNL1       -0.2736
     94 C         -21.3090   -4.3300   49.6770 C.3     1  UNL1       -0.0381
     95 H         -23.5130   -2.7290   51.4200 H       1  UNL1        0.1495
     96 H         -23.3760   -4.2760   49.1160 H       1  UNL1        0.0592
     97 H         -20.9960   -3.6730   48.8600 H       1  UNL1        0.0252
     98 H         -21.1120   -5.3630   49.3690 H       1  UNL1        0.0252
     99 H         -20.6700   -4.1110   50.5400 H       1  UNL1        0.0252
    100 N         -23.8590   -6.2980   50.7430 N.am    1  UNL1       -0.2865
    101 C         -24.4740   -6.5980   49.4480 C.3     1  UNL1        0.1230
    102 C         -25.8460   -5.9080   49.3170 C.2     1  UNL1        0.3282
    103 O         -26.8660   -6.2630   49.8950 O.2     1  UNL1       -0.2487
    104 C         -24.6440   -8.1190   49.4820 C.3     1  UNL1       -0.0225
    105 C         -24.8780   -8.4240   50.9610 C.3     1  UNL1       -0.0349
    106 C         -24.0170   -7.3980   51.6790 C.3     1  UNL1        0.0157
    107 H         -23.8280   -6.3060   48.6150 H       1  UNL1        0.0616
    108 H         -25.4590   -8.4860   48.8500 H       1  UNL1        0.0289
    109 H         -23.7140   -8.6030   49.1580 H       1  UNL1        0.0289
    110 H         -25.9320   -8.2770   51.2200 H       1  UNL1        0.0281
    111 H         -24.6120   -9.4510   51.2280 H       1  UNL1        0.0281
    112 H         -24.4670   -7.0490   52.6130 H       1  UNL1        0.0465
    113 H         -23.0210   -7.7980   51.9020 H       1  UNL1        0.0465
@<TRIPOS>BOND
     1    54    49    1
     2    55    49    1
     3    49    53    1
     4    49    47    1
     5    65    60    1
     6    69    62    1
     7    52    47    1
     8    47    48    1
     9    47    44    1
    10    71    73    2
    11    48   102    1
    12   107   101    1
    13   108   104    1
    14    97    94    1
    15    63    57    1
    16    46    45    2
    17    17     8    1
    18    96    91    1
    19   109   104    1
    20    67    61    1
    21    15     8    1
    22   102   101    1
    23   102   103    2
    24    62    56    1
    25    62    61    1
    26    62    68    1
    27    45    56   am
    28    45    44    1
    29    60    57    1
    30    60    61    1
    31    60    64    1
    32    98    94    1
    33   101   104    1
    34   101   100    1
    35    18     9    1
    36    56    57    1
    37   104   105    1
    38    79    72    1
    39    19     9    1
    40    44    51    1
    41    44    43    1
    42    94    91    1
    43    94    99    1
    44    73    72    1
    45    73    90   am
    46    57    58    1
    47    61    66    1
    48     8    16    1
    49     8     7    1
    50    91    90    1
    51    91    92    1
    52    81    74    1
    53     9     7    1
    54     9    10    1
    55    72    74    1
    56    72    70    1
    57    90    95    1
    58    21    10    1
    59   100    92   am
    60   100   106    1
    61    80    74    1
    62    74    75    1
    63    43    50    1
    64    43    23   am
    65     7    14    1
    66     7     6    1
    67    13     6    1
    68   105   110    1
    69   105   111    1
    70   105   106    1
    71    92    93    2
    72    10    22    1
    73    10    20    1
    74    58    70   am
    75    58    59    2
    76     1     4    1
    77    70    78    1
    78    36    24    1
    79     6    12    1
    80     6     5    1
    81   106   113    1
    82   106   112    1
    83    85    76    1
    84    23    25    2
    85    23    28    1
    86     4     5    2
    87     4     3    1
    88    75    82    1
    89    75    76    1
    90    75    77    1
    91     5    11    1
    92    24     3   am
    93    24    28    1
    94    76    83    1
    95    76    84    1
    96    78    89    1
    97    78    77    1
    98    78    88    1
    99     3     2    2
   100    28    37    1
   101    28    29    1
   102    77    86    1
   103    77    87    1
   104    39    29    1
   105    29    38    1
   106    29    30    1
   107    42    33    1
   108    30    33   ar
   109    30    32   ar
   110    33    35   ar
   111    41    32    1
   112    32    34   ar
   113    35    27    1
   114    35    31   ar
   115    34    31   ar
   116    34    26    1
   117    31    40    1
