@<TRIPOS>MOLECULE
112.37096
 113 117 0 0 0
SMALL
GASTEIGER

@<TRIPOS>ATOM
      1 H         -33.9870    1.6730   48.3010 H       1  UNL1        0.0666
      2 O         -31.2980    3.5580   48.7770 O.2     1  UNL1       -0.2708
      3 C         -32.2570    2.8410   49.0280 C.2     1  UNL1        0.2372
      4 C         -33.1560    2.2920   47.9820 C.2     1  UNL1       -0.0038
      5 C         -32.9460    2.5580   46.6840 C.2     1  UNL1       -0.0789
      6 C         -33.8390    2.0660   45.5790 C.3     1  UNL1       -0.0317
      7 C         -33.1490    1.0650   44.6290 C.3     1  UNL1       -0.0407
      8 C         -32.7170   -0.2030   45.3770 C.3     1  UNL1       -0.0621
      9 C         -34.0680    0.6650   43.4560 C.3     1  UNL1       -0.0530
     10 C         -34.3870    1.8130   42.5080 C.3     1  UNL1       -0.0650
     11 H         -32.1040    3.1830   46.3910 H       1  UNL1        0.0574
     12 H         -34.1670    2.9500   45.0210 H       1  UNL1        0.0310
     13 H         -34.7480    1.6100   45.9940 H       1  UNL1        0.0310
     14 H         -32.2460    1.5320   44.2150 H       1  UNL1        0.0301
     15 H         -32.2650   -0.9270   44.6900 H       1  UNL1        0.0233
     16 H         -31.9700    0.0230   46.1430 H       1  UNL1        0.0233
     17 H         -33.5710   -0.6870   45.8640 H       1  UNL1        0.0233
     18 H         -35.0060    0.2430   43.8390 H       1  UNL1        0.0265
     19 H         -33.5820   -0.1270   42.8720 H       1  UNL1        0.0265
     20 H         -33.4700    2.2880   42.1440 H       1  UNL1        0.0230
     21 H         -34.9400    1.4380   41.6400 H       1  UNL1        0.0230
     22 H         -35.0080    2.5740   42.9870 H       1  UNL1        0.0230
     23 C         -31.9510    1.6410   52.4330 C.2     1  UNL1        0.2344
     24 N         -32.6080    2.4350   50.2850 N.am    1  UNL1       -0.3002
     25 O         -32.9120    0.8690   52.4320 O.2     1  UNL1       -0.2737
     26 F         -34.4580    7.5010   49.3300 F       1  UNL1       -0.2054
     27 F         -29.9540    7.9020   50.6460 F       1  UNL1       -0.2054
     28 C         -31.8840    2.8430   51.4860 C.3     1  UNL1        0.1036
     29 C         -32.5280    4.0430   52.1960 C.3     1  UNL1       -0.0005
     30 C         -32.4170    5.3400   51.4310 C.ar    1  UNL1       -0.0397
     31 C         -32.2020    7.7350   49.9650 C.ar    1  UNL1        0.0088
     32 C         -33.5160    5.8460   50.7220 C.ar    1  UNL1       -0.0230
     33 C         -31.2090    6.0500   51.3960 C.ar    1  UNL1       -0.0230
     34 C         -33.3970    7.0320   50.0000 C.ar    1  UNL1        0.1264
     35 C         -31.1150    7.2340   50.6660 C.ar    1  UNL1        0.1264
     36 H         -33.3100    1.7060   50.4020 H       1  UNL1        0.1498
     37 H         -30.8380    3.0440   51.2270 H       1  UNL1        0.0598
     38 H         -33.5860    3.8320   52.4050 H       1  UNL1        0.0336
     39 H         -32.0650    4.1900   53.1820 H       1  UNL1        0.0336
     40 H         -32.1180    8.6540   49.3990 H       1  UNL1        0.0675
     41 H         -34.4680    5.3220   50.7160 H       1  UNL1        0.0649
     42 H         -30.3300    5.6920   51.9230 H       1  UNL1        0.0649
     43 N         -30.8940    1.4930   53.2970 N.am    1  UNL1       -0.2995
     44 C         -30.8580    0.3940   54.2670 C.3     1  UNL1        0.1366
     45 C         -30.7100    1.0330   55.6500 C.2     1  UNL1        0.2402
     46 O         -29.7060    1.6950   55.9230 O.2     1  UNL1       -0.2734
     47 C         -29.7510   -0.6230   53.9390 C.3     1  UNL1        0.1270
     48 O         -30.1370   -1.1650   52.6470 O.3     1  UNL1       -0.4580
     49 C         -29.7150   -1.7470   54.9770 C.3     1  UNL1       -0.0254
     50 H         -30.1610    2.1930   53.3490 H       1  UNL1        0.1496
     51 H         -31.8040   -0.1390   54.1910 H       1  UNL1        0.0632
     52 H         -28.7750   -0.1320   53.8510 H       1  UNL1        0.0755
     53 H         -30.6720   -2.2790   55.0090 H       1  UNL1        0.0266
     54 H         -28.9540   -2.4930   54.7320 H       1  UNL1        0.0266
     55 H         -29.4900   -1.3650   55.9770 H       1  UNL1        0.0266
     56 N         -31.7720    0.9130   56.5230 N.am    1  UNL1       -0.2883
     57 C         -32.9840    0.0970   56.3500 C.3     1  UNL1        0.1025
     58 C         -34.0020    0.7260   55.3550 C.2     1  UNL1        0.2367
     59 O         -34.0220    1.9500   55.1890 O.2     1  UNL1       -0.2735
     60 C         -33.5890    0.0390   57.7550 C.3     1  UNL1       -0.0243
     61 C         -33.1510    1.3600   58.3800 C.3     1  UNL1       -0.0350
     62 C         -31.7530    1.5650   57.8190 C.3     1  UNL1        0.0156
     63 H         -32.6710   -0.8930   56.0110 H       1  UNL1        0.0597
     64 H         -34.6760   -0.0820   57.7650 H       1  UNL1        0.0288
     65 H         -33.1460   -0.7930   58.3150 H       1  UNL1        0.0288
     66 H         -33.8130    2.1680   58.0470 H       1  UNL1        0.0281
     67 H         -33.1660    1.3390   59.4740 H       1  UNL1        0.0281
     68 H         -31.4830    2.6210   57.7200 H       1  UNL1        0.0465
     69 H         -30.9970    1.0650   58.4360 H       1  UNL1        0.0465
     70 N         -34.9040   -0.1230   54.7010 N.am    1  UNL1       -0.2884
     71 O         -33.5940   -3.5300   54.1530 O.2     1  UNL1       -0.2738
     72 C         -34.8900   -1.5980   54.8190 C.3     1  UNL1        0.1025
     73 C         -33.9350   -2.3780   53.8740 C.2     1  UNL1        0.2342
     74 C         -36.2980   -2.2150   54.7560 C.3     1  UNL1       -0.0231
     75 C         -37.1450   -1.6500   53.6140 C.3     1  UNL1       -0.0403
     76 C         -38.5430   -2.2640   53.6190 C.3     1  UNL1       -0.0623
     77 C         -37.2180   -0.1300   53.7620 C.3     1  UNL1       -0.0345
     78 C         -35.8240    0.4800   53.7280 C.3     1  UNL1        0.0158
     79 H         -34.5160   -1.8370   55.8210 H       1  UNL1        0.0597
     80 H         -36.8060   -2.0090   55.7080 H       1  UNL1        0.0290
     81 H         -36.2360   -3.3060   54.6680 H       1  UNL1        0.0290
     82 H         -36.6700   -1.8960   52.6550 H       1  UNL1        0.0299
     83 H         -39.0720   -2.0490   54.5540 H       1  UNL1        0.0232
     84 H         -39.1440   -1.8680   52.7930 H       1  UNL1        0.0232
     85 H         -38.4890   -3.3510   53.5020 H       1  UNL1        0.0232
     86 H         -37.7080    0.1320   54.7090 H       1  UNL1        0.0283
     87 H         -37.8240    0.3020   52.9570 H       1  UNL1        0.0283
     88 H         -35.9070    1.5590   53.8910 H       1  UNL1        0.0465
     89 H         -35.4000    0.3490   52.7280 H       1  UNL1        0.0465
     90 N         -33.5900   -1.7990   52.6820 N.am    1  UNL1       -0.3027
     91 C         -32.8050   -2.5050   51.6660 C.3     1  UNL1        0.0968
     92 C         -32.3420   -1.5230   50.5640 C.2     1  UNL1        0.2363
     93 O         -33.1460   -0.7400   50.0430 O.2     1  UNL1       -0.2736
     94 C         -33.6220   -3.6050   50.9890 C.3     1  UNL1       -0.0381
     95 H         -33.7070   -0.7910   52.5510 H       1  UNL1        0.1495
     96 H         -31.9560   -2.9610   52.1780 H       1  UNL1        0.0592
     97 H         -33.9340   -4.3730   51.7030 H       1  UNL1        0.0252
     98 H         -33.0390   -4.0950   50.2010 H       1  UNL1        0.0252
     99 H         -34.5280   -3.1970   50.5270 H       1  UNL1        0.0252
    100 N         -31.0240   -1.5640   50.1510 N.am    1  UNL1       -0.2865
    101 C         -29.9210   -2.4200   50.6310 C.3     1  UNL1        0.1230
    102 C         -29.2790   -1.9510   51.9550 C.2     1  UNL1        0.3282
    103 O         -28.1860   -2.3180   52.3650 O.2     1  UNL1       -0.2487
    104 C         -28.9010   -2.3440   49.4930 C.3     1  UNL1       -0.0225
    105 C         -29.0760   -0.9220   48.9740 C.3     1  UNL1       -0.0349
    106 C         -30.5780   -0.7080   49.0630 C.3     1  UNL1        0.0157
    107 H         -30.2860   -3.4410   50.7830 H       1  UNL1        0.0616
    108 H         -27.8700   -2.5490   49.7960 H       1  UNL1        0.0289
    109 H         -29.1710   -3.0560   48.7030 H       1  UNL1        0.0289
    110 H         -28.5550   -0.2170   49.6330 H       1  UNL1        0.0281
    111 H         -28.6930   -0.7870   47.9590 H       1  UNL1        0.0281
    112 H         -30.8390    0.3340   49.2590 H       1  UNL1        0.0465
    113 H         -31.0840   -1.0360   48.1490 H       1  UNL1        0.0465
@<TRIPOS>BOND
     1    21    10    1
     2    20    10    1
     3    10    22    1
     4    10     9    1
     5    19     9    1
     6     9    18    1
     7     9     7    1
     8    14     7    1
     9     7     8    1
    10     7     6    1
    11    15     8    1
    12    12     6    1
    13     8    17    1
    14     8    16    1
    15     6    13    1
    16     6     5    1
    17    11     5    1
    18     5     4    2
    19   111   105    1
    20     4     1    1
    21     4     3    1
    22   113   106    1
    23   109   104    1
    24     2     3    2
    25   105   106    1
    26   105   104    1
    27   105   110    1
    28     3    24   am
    29   106   112    1
    30   106   100    1
    31    26    34    1
    32    40    31    1
    33   104   108    1
    34   104   101    1
    35    31    34   ar
    36    31    35   ar
    37    34    32   ar
    38    93    92    2
    39   100    92   am
    40   100   101    1
    41    98    94    1
    42    24    36    1
    43    24    28    1
    44    99    94    1
    45    92    91    1
    46   101   107    1
    47   101   102    1
    48    27    35    1
    49    35    33   ar
    50    41    32    1
    51    32    30   ar
    52    94    91    1
    53    94    97    1
    54    37    28    1
    55    33    30   ar
    56    33    42    1
    57    30    29    1
    58    28    29    1
    59    28    23    1
    60    91    96    1
    61    91    90    1
    62   102   103    2
    63   102    48    1
    64    29    38    1
    65    29    39    1
    66    25    23    2
    67    23    43   am
    68    95    90    1
    69    48    47    1
    70    82    75    1
    71    90    73   am
    72    89    78    1
    73    84    76    1
    74    87    77    1
    75    43    50    1
    76    43    44    1
    77    85    76    1
    78    75    76    1
    79    75    77    1
    80    75    74    1
    81    76    83    1
    82    78    77    1
    83    78    88    1
    84    78    70    1
    85    77    86    1
    86    52    47    1
    87    73    71    2
    88    73    72    1
    89    47    44    1
    90    47    49    1
    91    51    44    1
    92    44    45    1
    93    81    74    1
    94    70    72    1
    95    70    58   am
    96    54    49    1
    97    74    72    1
    98    74    80    1
    99    72    79    1
   100    49    53    1
   101    49    55    1
   102    59    58    2
   103    58    57    1
   104    45    46    2
   105    45    56   am
   106    63    57    1
   107    57    56    1
   108    57    60    1
   109    56    62    1
   110    68    62    1
   111    60    64    1
   112    60    65    1
   113    60    61    1
   114    62    61    1
   115    62    69    1
   116    66    61    1
   117    61    67    1
