@<TRIPOS>MOLECULE
123.09023
 113 117 0 0 0
SMALL
GASTEIGER

@<TRIPOS>ATOM
      1 H         -31.5030   -3.9910   50.3970 H       1  UNL1        0.0666
      2 O         -29.2530   -5.4660   52.3460 O.2     1  UNL1       -0.2708
      3 C         -29.7510   -4.9500   51.3530 C.2     1  UNL1        0.2372
      4 C         -31.1250   -4.3930   51.3280 C.2     1  UNL1       -0.0038
      5 C         -31.8640   -4.3730   52.4480 C.2     1  UNL1       -0.0789
      6 C         -33.2520   -3.8020   52.5260 C.3     1  UNL1       -0.0317
      7 C         -33.3720   -2.6400   53.5360 C.3     1  UNL1       -0.0407
      8 C         -32.4490   -1.4720   53.1610 C.3     1  UNL1       -0.0621
      9 C         -34.8200   -2.1190   53.6400 C.3     1  UNL1       -0.0530
     10 C         -35.8080   -3.1450   54.1770 C.3     1  UNL1       -0.0650
     11 H         -31.4580   -4.7870   53.3710 H       1  UNL1        0.0574
     12 H         -33.9170   -4.6220   52.8190 H       1  UNL1        0.0310
     13 H         -33.5870   -3.4650   51.5370 H       1  UNL1        0.0310
     14 H         -33.0660   -3.0010   54.5270 H       1  UNL1        0.0301
     15 H         -32.5600   -0.6460   53.8720 H       1  UNL1        0.0233
     16 H         -31.3960   -1.7710   53.1770 H       1  UNL1        0.0233
     17 H         -32.6790   -1.0900   52.1600 H       1  UNL1        0.0233
     18 H         -35.1650   -1.7670   52.6600 H       1  UNL1        0.0265
     19 H         -34.8400   -1.2500   54.3100 H       1  UNL1        0.0265
     20 H         -35.4640   -3.5610   55.1300 H       1  UNL1        0.0230
     21 H         -36.7820   -2.6740   54.3460 H       1  UNL1        0.0230
     22 H         -35.9600   -3.9670   53.4720 H       1  UNL1        0.0230
     23 C         -26.8720   -3.9480   50.6220 C.2     1  UNL1        0.2344
     24 N         -29.0740   -4.7700   50.1750 N.am    1  UNL1       -0.3002
     25 O         -26.5340   -2.9790   49.9450 O.2     1  UNL1       -0.2737
     26 F         -30.4580   -7.3570   45.4540 F       1  UNL1       -0.2054
     27 F         -28.1610  -10.2270   48.3960 F       1  UNL1       -0.2054
     28 C         -27.6630   -5.1420   50.0580 C.3     1  UNL1        0.1036
     29 C         -27.2570   -5.4190   48.6040 C.3     1  UNL1       -0.0005
     30 C         -27.9720   -6.6110   48.0060 C.ar    1  UNL1       -0.0397
     31 C         -29.3310   -8.8240   46.9100 C.ar    1  UNL1        0.0088
     32 C         -28.9020   -6.4400   46.9710 C.ar    1  UNL1       -0.0230
     33 C         -27.7260   -7.9090   48.4780 C.ar    1  UNL1       -0.0230
     34 C         -29.5690   -7.5430   46.4380 C.ar    1  UNL1        0.1264
     35 C         -28.4060   -8.9960   47.9290 C.ar    1  UNL1        0.1264
     36 H         -29.4930   -4.2360   49.4250 H       1  UNL1        0.1498
     37 H         -27.4700   -6.0220   50.6830 H       1  UNL1        0.0598
     38 H         -27.4450   -4.5330   47.9830 H       1  UNL1        0.0336
     39 H         -26.1750   -5.5990   48.5450 H       1  UNL1        0.0336
     40 H         -29.8560   -9.6750   46.4920 H       1  UNL1        0.0675
     41 H         -29.1210   -5.4550   46.5660 H       1  UNL1        0.0649
     42 H         -27.0100   -8.0940   49.2750 H       1  UNL1        0.0649
     43 N         -26.7330   -3.9740   51.9900 N.am    1  UNL1       -0.2995
     44 C         -26.2430   -2.8280   52.7550 C.3     1  UNL1        0.1366
     45 C         -25.5790   -3.3890   54.0270 C.2     1  UNL1        0.2402
     46 O         -26.0430   -4.3970   54.5730 O.2     1  UNL1       -0.2734
     47 C         -27.4090   -1.8520   53.0450 C.3     1  UNL1        0.1270
     48 O         -26.8850   -0.5070   53.1460 O.3     1  UNL1       -0.4580
     49 C         -28.2150   -2.1650   54.3030 C.3     1  UNL1       -0.0254
     50 H         -27.1370   -4.7490   52.5230 H       1  UNL1        0.1496
     51 H         -25.4940   -2.3250   52.1390 H       1  UNL1        0.0632
     52 H         -28.0930   -1.8980   52.1880 H       1  UNL1        0.0755
     53 H         -27.6170   -2.0200   55.2080 H       1  UNL1        0.0266
     54 H         -29.0660   -1.4800   54.3900 H       1  UNL1        0.0266
     55 H         -28.6040   -3.1870   54.2860 H       1  UNL1        0.0266
     56 N         -24.4800   -2.7490   54.5560 N.am    1  UNL1       -0.2883
     57 C         -23.8390   -1.5010   54.1180 C.3     1  UNL1        0.1025
     58 C         -23.0060   -1.6680   52.8200 C.2     1  UNL1        0.2367
     59 O         -22.7770   -2.7920   52.3690 O.2     1  UNL1       -0.2735
     60 C         -22.9300   -1.1390   55.3000 C.3     1  UNL1       -0.0243
     61 C         -22.5450   -2.4950   55.8770 C.3     1  UNL1       -0.0350
     62 C         -23.8210   -3.3020   55.7270 C.3     1  UNL1        0.0156
     63 H         -24.6100   -0.7490   53.9520 H       1  UNL1        0.0597
     64 H         -22.0460   -0.5560   55.0320 H       1  UNL1        0.0288
     65 H         -23.5020   -0.5730   56.0460 H       1  UNL1        0.0288
     66 H         -21.7430   -2.9410   55.2780 H       1  UNL1        0.0281
     67 H         -22.2040   -2.4360   56.9140 H       1  UNL1        0.0281
     68 H         -23.6320   -4.3730   55.6020 H       1  UNL1        0.0465
     69 H         -24.4870   -3.1600   56.5850 H       1  UNL1        0.0465
     70 N         -22.5370   -0.5230   52.1800 N.am    1  UNL1       -0.2884
     71 O         -23.6660    2.8850   51.5620 O.2     1  UNL1       -0.2738
     72 C         -22.7640    0.8760   52.6070 C.3     1  UNL1        0.1025
     73 C         -23.6960    1.6610   51.6510 C.2     1  UNL1        0.2342
     74 C         -21.4230    1.5960   52.8160 C.3     1  UNL1       -0.0231
     75 C         -20.5040    1.4730   51.5890 C.3     1  UNL1       -0.0403
     76 C         -19.1480    2.1200   51.8650 C.3     1  UNL1       -0.0623
     77 C         -20.3360   -0.0020   51.2000 C.3     1  UNL1       -0.0345
     78 C         -21.6900   -0.6760   50.9920 C.3     1  UNL1        0.0158
     79 H         -23.2930    0.8890   53.5640 H       1  UNL1        0.0597
     80 H         -20.9180    1.1540   53.6840 H       1  UNL1        0.0290
     81 H         -21.5850    2.6540   53.0540 H       1  UNL1        0.0290
     82 H         -20.9650    2.0060   50.7470 H       1  UNL1        0.0299
     83 H         -18.6330    1.6290   52.6980 H       1  UNL1        0.0232
     84 H         -18.5010    2.0560   50.9830 H       1  UNL1        0.0232
     85 H         -19.2670    3.1790   52.1170 H       1  UNL1        0.0232
     86 H         -19.7860   -0.5320   51.9880 H       1  UNL1        0.0283
     87 H         -19.7420   -0.0830   50.2820 H       1  UNL1        0.0283
     88 H         -21.5330   -1.7310   50.7450 H       1  UNL1        0.0465
     89 H         -22.2140   -0.2240   50.1420 H       1  UNL1        0.0465
     90 N         -24.7040    0.9110   51.0750 N.am    1  UNL1       -0.3027
     91 C         -25.5540    1.5000   50.0440 C.3     1  UNL1        0.0968
     92 C         -26.5140    2.6610   50.4290 C.2     1  UNL1        0.2363
     93 O         -26.8180    3.4800   49.5500 O.2     1  UNL1       -0.2736
     94 C         -26.3650    0.4100   49.3460 C.3     1  UNL1       -0.0381
     95 H         -24.5990   -0.0980   51.0870 H       1  UNL1        0.1495
     96 H         -24.8610    1.9310   49.3070 H       1  UNL1        0.0592
     97 H         -25.7010   -0.3420   48.9050 H       1  UNL1        0.0252
     98 H         -26.9820    0.8270   48.5430 H       1  UNL1        0.0252
     99 H         -27.0310   -0.1070   50.0420 H       1  UNL1        0.0252
    100 N         -27.1740    2.6880   51.6380 N.am    1  UNL1       -0.2865
    101 C         -27.0020    1.8410   52.8190 C.3     1  UNL1        0.1230
    102 C         -27.6940    0.4850   52.6640 C.2     1  UNL1        0.3282
    103 O         -28.8150    0.3150   52.2030 O.2     1  UNL1       -0.2487
    104 C         -27.6650    2.6280   53.9520 C.3     1  UNL1       -0.0225
    105 C         -28.7590    3.4140   53.2410 C.3     1  UNL1       -0.0349
    106 C         -28.1200    3.7610   51.9070 C.3     1  UNL1        0.0157
    107 H         -25.9450    1.6960   53.0410 H       1  UNL1        0.0616
    108 H         -28.0610    1.9980   54.7550 H       1  UNL1        0.0289
    109 H         -26.9420    3.3270   54.3900 H       1  UNL1        0.0289
    110 H         -29.6390    2.7790   53.0850 H       1  UNL1        0.0281
    111 H         -29.0770    4.3000   53.7980 H       1  UNL1        0.0281
    112 H         -28.8540    3.8470   51.1000 H       1  UNL1        0.0465
    113 H         -27.5560    4.6990   51.9690 H       1  UNL1        0.0465
@<TRIPOS>BOND
     1    26    34    1
     2    34    31   ar
     3    34    32   ar
     4    40    31    1
     5    41    32    1
     6    31    35   ar
     7    32    30   ar
     8    35    27    1
     9    35    33   ar
    10    38    29    1
    11    30    33   ar
    12    30    29    1
    13    33    42    1
    14    98    94    1
    15    39    29    1
    16    29    28    1
    17    97    94    1
    18    96    91    1
    19    94    99    1
    20    94    91    1
    21    36    24    1
    22    93    92    2
    23    25    23    2
    24    91    92    1
    25    91    90    1
    26    28    24    1
    27    28    23    1
    28    28    37    1
    29    89    78    1
    30    24     3   am
    31    87    77    1
    32     1     4    1
    33    92   100   am
    34    23    43   am
    35    88    78    1
    36    82    75    1
    37    84    76    1
    38    78    77    1
    39    78    70    1
    40    90    95    1
    41    90    73   am
    42   112   106    1
    43    77    75    1
    44    77    86    1
    45     4     3    1
    46     4     5    2
    47     3     2    2
    48    13     6    1
    49    71    73    2
    50    75    76    1
    51    75    74    1
    52   100   106    1
    53   100   101    1
    54    73    72    1
    55    76    85    1
    56    76    83    1
    57   106   113    1
    58   106   105    1
    59    43    50    1
    60    43    44    1
    61    51    44    1
    62    17     8    1
    63    70    72    1
    64    70    58   am
    65    52    47    1
    66   103   102    2
    67    59    58    2
    68     5     6    1
    69     5    11    1
    70     6    12    1
    71     6     7    1
    72    72    74    1
    73    72    79    1
    74    18     9    1
    75   102   101    1
    76   102    48    1
    77    44    47    1
    78    44    45    1
    79    74    81    1
    80    74    80    1
    81   101   107    1
    82   101   104    1
    83    58    57    1
    84    47    48    1
    85    47    49    1
    86   110   105    1
    87     8    16    1
    88     8     7    1
    89     8    15    1
    90   105   111    1
    91   105   104    1
    92    22    10    1
    93     7     9    1
    94     7    14    1
    95     9    10    1
    96     9    19    1
    97    63    57    1
    98   104   109    1
    99   104   108    1
   100    45    56   am
   101    45    46    2
   102    57    56    1
   103    57    60    1
   104    10    21    1
   105    10    20    1
   106    55    49    1
   107    49    54    1
   108    49    53    1
   109    56    62    1
   110    64    60    1
   111    66    61    1
   112    60    61    1
   113    60    65    1
   114    68    62    1
   115    62    61    1
   116    62    69    1
   117    61    67    1
