@<TRIPOS>MOLECULE
108.67521
 113 117 0 0 0
SMALL
GASTEIGER

@<TRIPOS>ATOM
      1 H         -31.3880   -3.2130   48.6760 H       1  UNL1        0.0666
      2 O         -30.7110   -4.2090   51.7690 O.2     1  UNL1       -0.2708
      3 C         -30.6740   -4.1470   50.5460 C.2     1  UNL1        0.2372
      4 C         -31.4470   -3.1570   49.7570 C.2     1  UNL1       -0.0038
      5 C         -32.1990   -2.2310   50.3720 C.2     1  UNL1       -0.0789
      6 C         -33.0050   -1.1920   49.6430 C.3     1  UNL1       -0.0317
      7 C         -34.5310   -1.4030   49.7540 C.3     1  UNL1       -0.0407
      8 C         -35.0110   -1.3160   51.2090 C.3     1  UNL1       -0.0621
      9 C         -35.3120   -0.3740   48.9100 C.3     1  UNL1       -0.0530
     10 C         -35.0910   -0.5110   47.4100 C.3     1  UNL1       -0.0650
     11 H         -32.2300   -2.2050   51.4610 H       1  UNL1        0.0574
     12 H         -32.7060   -1.1880   48.5890 H       1  UNL1        0.0310
     13 H         -32.7360   -0.2050   50.0410 H       1  UNL1        0.0310
     14 H         -34.7760   -2.4080   49.3820 H       1  UNL1        0.0301
     15 H         -36.0990   -1.4270   51.2670 H       1  UNL1        0.0233
     16 H         -34.5750   -2.1100   51.8240 H       1  UNL1        0.0233
     17 H         -34.7450   -0.3520   51.6560 H       1  UNL1        0.0233
     18 H         -35.0510    0.6450   49.2220 H       1  UNL1        0.0265
     19 H         -36.3860   -0.4960   49.1010 H       1  UNL1        0.0265
     20 H         -35.2870   -1.5350   47.0750 H       1  UNL1        0.0230
     21 H         -35.7690    0.1570   46.8700 H       1  UNL1        0.0230
     22 H         -34.0710   -0.2410   47.1240 H       1  UNL1        0.0230
     23 C         -27.7030   -5.3300   50.6500 C.2     1  UNL1        0.2344
     24 N         -29.8900   -4.9550   49.7680 N.am    1  UNL1       -0.3002
     25 O         -26.7530   -5.4000   49.8720 O.2     1  UNL1       -0.2737
     26 F         -32.8440   -8.2980   46.8120 F       1  UNL1       -0.2054
     27 F         -32.0550  -10.6020   50.8420 F       1  UNL1       -0.2054
     28 C         -29.0540   -5.9950   50.3640 C.3     1  UNL1        0.1036
     29 C         -28.8580   -7.1880   49.4170 C.3     1  UNL1       -0.0005
     30 C         -30.1200   -7.9900   49.2060 C.ar    1  UNL1       -0.0397
     31 C         -32.4830   -9.4720   48.8220 C.ar    1  UNL1        0.0088
     32 C         -30.9230   -7.7750   48.0770 C.ar    1  UNL1       -0.0230
     33 C         -30.5190   -8.9540   50.1430 C.ar    1  UNL1       -0.0230
     34 C         -32.0900   -8.5150   47.8980 C.ar    1  UNL1        0.1264
     35 C         -31.6900   -9.6820   49.9400 C.ar    1  UNL1        0.1264
     36 H         -29.7000   -4.6820   48.8040 H       1  UNL1        0.1498
     37 H         -29.4920   -6.3250   51.3140 H       1  UNL1        0.0598
     38 H         -28.4810   -6.8490   48.4430 H       1  UNL1        0.0336
     39 H         -28.0830   -7.8570   49.8140 H       1  UNL1        0.0336
     40 H         -33.3910  -10.0430   48.6740 H       1  UNL1        0.0675
     41 H         -30.6530   -7.0340   47.3290 H       1  UNL1        0.0649
     42 H         -29.9280   -9.1500   51.0340 H       1  UNL1        0.0649
     43 N         -27.6780   -4.5270   51.7650 N.am    1  UNL1       -0.2995
     44 C         -26.5070   -3.7320   52.1430 C.3     1  UNL1        0.1366
     45 C         -25.9200   -4.3010   53.4410 C.2     1  UNL1        0.2402
     46 O         -26.6090   -4.3710   54.4620 O.2     1  UNL1       -0.2734
     47 C         -26.8770   -2.2410   52.2620 C.3     1  UNL1        0.1270
     48 O         -26.9760   -1.6750   50.9220 O.3     1  UNL1       -0.4580
     49 C         -25.9910   -1.3880   53.1690 C.3     1  UNL1       -0.0254
     50 H         -28.5050   -4.4940   52.3640 H       1  UNL1        0.1496
     51 H         -25.7920   -3.8400   51.3310 H       1  UNL1        0.0632
     52 H         -27.8950   -2.1620   52.6650 H       1  UNL1        0.0755
     53 H         -24.9260   -1.5540   52.9860 H       1  UNL1        0.0266
     54 H         -26.1890   -0.3230   53.0090 H       1  UNL1        0.0266
     55 H         -26.1790   -1.6150   54.2240 H       1  UNL1        0.0266
     56 N         -24.6090   -4.7300   53.4110 N.am    1  UNL1       -0.2883
     57 C         -23.6890   -4.7040   52.2650 C.3     1  UNL1        0.1025
     58 C         -23.9910   -5.8530   51.2640 C.2     1  UNL1        0.2367
     59 O         -24.4930   -6.9050   51.6750 O.2     1  UNL1       -0.2735
     60 C         -22.3130   -4.9130   52.9010 C.3     1  UNL1       -0.0243
     61 C         -22.6180   -5.7810   54.1190 C.3     1  UNL1       -0.0350
     62 C         -23.9660   -5.2630   54.5980 C.3     1  UNL1        0.0156
     63 H         -23.7610   -3.7260   51.7930 H       1  UNL1        0.0597
     64 H         -21.5830   -5.3790   52.2330 H       1  UNL1        0.0288
     65 H         -21.9090   -3.9490   53.2340 H       1  UNL1        0.0288
     66 H         -22.7040   -6.8320   53.8170 H       1  UNL1        0.0281
     67 H         -21.8460   -5.7160   54.8910 H       1  UNL1        0.0281
     68 H         -24.5820   -6.0410   55.0590 H       1  UNL1        0.0465
     69 H         -23.8470   -4.4400   55.3120 H       1  UNL1        0.0465
     70 N         -23.6180   -5.7070   49.9300 N.am    1  UNL1       -0.2884
     71 O         -23.3310   -3.1230   47.3300 O.2     1  UNL1       -0.2738
     72 C         -22.9920   -4.5180   49.3090 C.3     1  UNL1        0.1025
     73 C         -23.8380   -3.8490   48.1850 C.2     1  UNL1        0.2342
     74 C         -21.5960   -4.9050   48.7850 C.3     1  UNL1       -0.0231
     75 C         -21.6530   -6.1240   47.8450 C.3     1  UNL1       -0.0403
     76 C         -20.2480   -6.5410   47.4140 C.3     1  UNL1       -0.0623
     77 C         -22.3810   -7.2940   48.5240 C.3     1  UNL1       -0.0345
     78 C         -23.7520   -6.8650   49.0410 C.3     1  UNL1        0.0158
     79 H         -22.8490   -3.7340   50.0540 H       1  UNL1        0.0597
     80 H         -20.9530   -5.1450   49.6430 H       1  UNL1        0.0290
     81 H         -21.1280   -4.0590   48.2680 H       1  UNL1        0.0290
     82 H         -22.2120   -5.8460   46.9430 H       1  UNL1        0.0299
     83 H         -19.6370   -6.8350   48.2730 H       1  UNL1        0.0232
     84 H         -20.2920   -7.3910   46.7230 H       1  UNL1        0.0232
     85 H         -19.7400   -5.7180   46.9010 H       1  UNL1        0.0232
     86 H         -21.7800   -7.6670   49.3640 H       1  UNL1        0.0283
     87 H         -22.4990   -8.1250   47.8190 H       1  UNL1        0.0283
     88 H         -24.2280   -7.7110   49.5480 H       1  UNL1        0.0465
     89 H         -24.4040   -6.5920   48.2050 H       1  UNL1        0.0465
     90 N         -25.2030   -4.0000   48.2770 N.am    1  UNL1       -0.3027
     91 C         -26.1090   -3.6070   47.1990 C.3     1  UNL1        0.0968
     92 C         -27.4490   -2.9950   47.6980 C.2     1  UNL1        0.2363
     93 O         -28.5300   -3.5760   47.5520 O.2     1  UNL1       -0.2736
     94 C         -26.3700   -4.8160   46.3000 C.3     1  UNL1       -0.0381
     95 H         -25.5860   -4.6100   49.0060 H       1  UNL1        0.1495
     96 H         -25.6220   -2.8460   46.5770 H       1  UNL1        0.0592
     97 H         -25.4340   -5.2000   45.8800 H       1  UNL1        0.0252
     98 H         -27.0330   -4.5520   45.4700 H       1  UNL1        0.0252
     99 H         -26.8410   -5.6330   46.8590 H       1  UNL1        0.0252
    100 N         -27.3960   -1.7250   48.2410 N.am    1  UNL1       -0.2865
    101 C         -26.2050   -1.0330   48.7380 C.3     1  UNL1        0.1230
    102 C         -25.8550   -1.4790   50.1690 C.2     1  UNL1        0.3282
    103 O         -24.7080   -1.5770   50.5880 O.2     1  UNL1       -0.2487
    104 C         -26.6160    0.4380   48.7160 C.3     1  UNL1       -0.0225
    105 C         -28.1160    0.4040   49.0060 C.3     1  UNL1       -0.0349
    106 C         -28.5890   -0.9120   48.4000 C.3     1  UNL1        0.0157
    107 H         -25.3410   -1.2190   48.0960 H       1  UNL1        0.0616
    108 H         -26.0710    1.0570   49.4350 H       1  UNL1        0.0289
    109 H         -26.4540    0.8510   47.7130 H       1  UNL1        0.0289
    110 H         -28.2930    0.4070   50.0880 H       1  UNL1        0.0281
    111 H         -28.6440    1.2660   48.5880 H       1  UNL1        0.0281
    112 H         -29.3090   -1.4240   49.0410 H       1  UNL1        0.0465
    113 H         -29.0390   -0.7660   47.4130 H       1  UNL1        0.0465
@<TRIPOS>BOND
     1    98    94    1
     2    97    94    1
     3    94    99    1
     4    94    91    1
     5    96    91    1
     6    84    76    1
     7    26    34    1
     8    21    10    1
     9    85    76    1
    10    82    75    1
    11    20    10    1
    12    22    10    1
    13    91    92    1
    14    91    90    1
    15    41    32    1
    16    71    73    2
    17    10     9    1
    18   113   106    1
    19    76    75    1
    20    76    83    1
    21    93    92    2
    22    92   100   am
    23   109   104    1
    24    87    77    1
    25    75    77    1
    26    75    74    1
    27    34    32   ar
    28    34    31   ar
    29    32    30   ar
    30   107   101    1
    31    73    90   am
    32    73    72    1
    33    89    78    1
    34   100   106    1
    35   100   101    1
    36    81    74    1
    37    90    95    1
    38   106   105    1
    39   106   112    1
    40    38    29    1
    41    77    78    1
    42    77    86    1
    43   111   105    1
    44    12     6    1
    45    40    31    1
    46     1     4    1
    47   104   101    1
    48   104   105    1
    49   104   108    1
    50   101   102    1
    51    74    72    1
    52    74    80    1
    53    36    24    1
    54    31    35   ar
    55     9    19    1
    56     9    18    1
    57     9     7    1
    58   105   110    1
    59    78    88    1
    60    78    70    1
    61    30    29    1
    62    30    33   ar
    63    72    70    1
    64    72    79    1
    65    14     7    1
    66    29    39    1
    67    29    28    1
    68     6     7    1
    69     6    13    1
    70     6     5    1
    71     7     8    1
    72     4     5    2
    73     4     3    1
    74    24    28    1
    75    24     3   am
    76    25    23    2
    77    70    58   am
    78    35    33   ar
    79    35    27    1
    80    33    42    1
    81   102   103    2
    82   102    48    1
    83    28    23    1
    84    28    37    1
    85     5    11    1
    86     3     2    2
    87    23    43   am
    88    48    47    1
    89     8    15    1
    90     8    17    1
    91     8    16    1
    92    58    59    2
    93    58    57    1
    94    51    44    1
    95    43    44    1
    96    43    50    1
    97    63    57    1
    98    44    47    1
    99    44    45    1
   100    64    60    1
   101    47    52    1
   102    47    49    1
   103    57    60    1
   104    57    56    1
   105    60    65    1
   106    60    61    1
   107    53    49    1
   108    54    49    1
   109    49    55    1
   110    56    45   am
   111    56    62    1
   112    45    46    2
   113    66    61    1
   114    61    62    1
   115    61    67    1
   116    62    68    1
   117    62    69    1
