@<TRIPOS>MOLECULE
142.85301
 113 117 0 0 0
SMALL
GASTEIGER

@<TRIPOS>ATOM
      1 H         -21.9460   -2.8470   54.1800 H       1  UNL1        0.0666
      2 O         -25.0780   -3.9170   53.9110 O.2     1  UNL1       -0.2708
      3 C         -24.1050   -3.3110   54.3380 C.2     1  UNL1        0.2372
      4 C         -22.7690   -3.3560   53.6940 C.2     1  UNL1       -0.0038
      5 C         -22.5990   -4.0000   52.5290 C.2     1  UNL1       -0.0789
      6 C         -21.2890   -4.0730   51.7960 C.3     1  UNL1       -0.0317
      7 C         -21.3510   -3.4650   50.3780 C.3     1  UNL1       -0.0407
      8 C         -21.7560   -1.9850   50.4160 C.3     1  UNL1       -0.0621
      9 C         -20.0020   -3.5950   49.6390 C.3     1  UNL1       -0.0530
     10 C         -19.5750   -5.0340   49.3830 C.3     1  UNL1       -0.0650
     11 H         -23.4450   -4.5080   52.0650 H       1  UNL1        0.0574
     12 H         -21.0160   -5.1320   51.7360 H       1  UNL1        0.0310
     13 H         -20.4970   -3.5780   52.3720 H       1  UNL1        0.0310
     14 H         -22.1130   -4.0030   49.7970 H       1  UNL1        0.0301
     15 H         -21.7660   -1.5590   49.4060 H       1  UNL1        0.0233
     16 H         -22.7600   -1.8530   50.8300 H       1  UNL1        0.0233
     17 H         -21.0570   -1.3990   51.0220 H       1  UNL1        0.0233
     18 H         -19.2140   -3.0810   50.2020 H       1  UNL1        0.0265
     19 H         -20.0760   -3.0890   48.6680 H       1  UNL1        0.0265
     20 H         -20.3640   -5.5940   48.8710 H       1  UNL1        0.0230
     21 H         -18.6830   -5.0510   48.7490 H       1  UNL1        0.0230
     22 H         -19.3260   -5.5520   50.3120 H       1  UNL1        0.0230
     23 C         -26.0380   -1.0370   55.3340 C.2     1  UNL1        0.2344
     24 N         -24.1450   -2.4780   55.4250 N.am    1  UNL1       -0.3002
     25 O         -25.6160    0.1170   55.3970 O.2     1  UNL1       -0.2737
     26 F         -21.3860   -3.6520   60.0230 F       1  UNL1       -0.2054
     27 F         -25.3290   -6.2060   59.7050 F       1  UNL1       -0.2054
     28 C         -25.4070   -2.2000   56.1110 C.3     1  UNL1        0.1036
     29 C         -25.1950   -1.7980   57.5770 C.3     1  UNL1       -0.0005
     30 C         -24.5560   -2.8960   58.4000 C.ar    1  UNL1       -0.0397
     31 C         -23.3400   -4.9590   59.8850 C.ar    1  UNL1        0.0088
     32 C         -23.2390   -2.7640   58.8640 C.ar    1  UNL1       -0.0230
     33 C         -25.2590   -4.0720   58.6990 C.ar    1  UNL1       -0.0230
     34 C         -22.6480   -3.7930   59.5960 C.ar    1  UNL1        0.1264
     35 C         -24.6450   -5.0860   59.4340 C.ar    1  UNL1        0.1264
     36 H         -23.3450   -1.9070   55.6610 H       1  UNL1        0.1498
     37 H         -26.0560   -3.0810   56.0450 H       1  UNL1        0.0598
     38 H         -24.5790   -0.8910   57.6390 H       1  UNL1        0.0336
     39 H         -26.1570   -1.5330   58.0350 H       1  UNL1        0.0336
     40 H         -22.8720   -5.7540   60.4520 H       1  UNL1        0.0675
     41 H         -22.6590   -1.8670   58.6630 H       1  UNL1        0.0649
     42 H         -26.2820   -4.2170   58.3640 H       1  UNL1        0.0649
     43 N         -27.0010   -1.3990   54.4240 N.am    1  UNL1       -0.2995
     44 C         -27.6340   -0.4160   53.5470 C.3     1  UNL1        0.1366
     45 C         -28.9970   -0.9880   53.1140 C.2     1  UNL1        0.2402
     46 O         -29.0680   -1.9030   52.2900 O.2     1  UNL1       -0.2734
     47 C         -26.7130   -0.0090   52.3630 C.3     1  UNL1        0.1270
     48 O         -27.2500    1.0020   51.4730 O.3     1  UNL1       -0.4580
     49 C         -26.2700   -1.1690   51.4700 C.3     1  UNL1       -0.0254
     50 H         -27.1990   -2.3870   54.2660 H       1  UNL1        0.1496
     51 H         -27.7820    0.4780   54.1520 H       1  UNL1        0.0632
     52 H         -25.7910    0.4110   52.7820 H       1  UNL1        0.0755
     53 H         -27.0910   -1.5390   50.8490 H       1  UNL1        0.0266
     54 H         -25.5010   -0.8220   50.7690 H       1  UNL1        0.0266
     55 H         -25.8510   -1.9970   52.0450 H       1  UNL1        0.0266
     56 N         -30.1260   -0.5490   53.7780 N.am    1  UNL1       -0.2883
     57 C         -30.2290    0.4860   54.8140 C.3     1  UNL1        0.1025
     58 C         -29.9180   -0.0400   56.2390 C.2     1  UNL1        0.2367
     59 O         -29.9910   -1.2460   56.4930 O.2     1  UNL1       -0.2735
     60 C         -31.6960    0.9190   54.7380 C.3     1  UNL1       -0.0243
     61 C         -32.4140   -0.3710   54.3520 C.3     1  UNL1       -0.0350
     62 C         -31.4370   -1.0470   53.4030 C.3     1  UNL1        0.0156
     63 H         -29.5730    1.3110   54.5670 H       1  UNL1        0.0597
     64 H         -32.0850    1.3470   55.6660 H       1  UNL1        0.0288
     65 H         -31.8230    1.6590   53.9380 H       1  UNL1        0.0288
     66 H         -32.5690   -0.9930   55.2410 H       1  UNL1        0.0281
     67 H         -33.3900   -0.1920   53.8920 H       1  UNL1        0.0281
     68 H         -31.4680   -2.1390   53.4730 H       1  UNL1        0.0465
     69 H         -31.6250   -0.7580   52.3630 H       1  UNL1        0.0465
     70 N         -29.7050    0.9040   57.2480 N.am    1  UNL1       -0.2884
     71 O         -26.9970    1.4760   58.1490 O.2     1  UNL1       -0.2738
     72 C         -29.0440    2.2150   57.0390 C.3     1  UNL1        0.1025
     73 C         -27.5050    2.0950   57.2100 C.2     1  UNL1        0.2342
     74 C         -29.5980    3.2900   57.9870 C.3     1  UNL1       -0.0231
     75 C         -29.6710    2.8270   59.4490 C.3     1  UNL1       -0.0403
     76 C         -30.3340    3.8940   60.3190 C.3     1  UNL1       -0.0623
     77 C         -30.4310    1.5020   59.5390 C.3     1  UNL1       -0.0345
     78 C         -29.8180    0.4390   58.6330 C.3     1  UNL1        0.0158
     79 H         -29.2480    2.5600   56.0280 H       1  UNL1        0.0597
     80 H         -30.6080    3.5590   57.6490 H       1  UNL1        0.0290
     81 H         -28.9910    4.2010   57.9250 H       1  UNL1        0.0290
     82 H         -28.6530    2.6750   59.8290 H       1  UNL1        0.0299
     83 H         -31.3600    4.0950   59.9930 H       1  UNL1        0.0232
     84 H         -30.3670    3.5760   61.3660 H       1  UNL1        0.0232
     85 H         -29.7740    4.8340   60.2720 H       1  UNL1        0.0232
     86 H         -31.4790    1.6590   59.2480 H       1  UNL1        0.0283
     87 H         -30.4380    1.1390   60.5730 H       1  UNL1        0.0283
     88 H         -30.4470   -0.4570   58.6770 H       1  UNL1        0.0465
     89 H         -28.8270    0.1410   58.9880 H       1  UNL1        0.0465
     90 N         -26.6620    2.7180   56.3440 N.am    1  UNL1       -0.3027
     91 C         -26.8910    3.4130   55.0790 C.3     1  UNL1        0.0968
     92 C         -25.5860    3.2970   54.2510 C.2     1  UNL1        0.2363
     93 O         -24.4890    3.3270   54.8190 O.2     1  UNL1       -0.2736
     94 C         -27.2180    4.8810   55.3090 C.3     1  UNL1       -0.0381
     95 H         -25.6820    2.5240   56.5530 H       1  UNL1        0.1495
     96 H         -27.7110    2.9170   54.5660 H       1  UNL1        0.0592
     97 H         -28.1600    4.9950   55.8530 H       1  UNL1        0.0252
     98 H         -27.3080    5.4240   54.3630 H       1  UNL1        0.0252
     99 H         -26.4340    5.3730   55.8960 H       1  UNL1        0.0252
    100 N         -25.6690    3.1950   52.8770 N.am    1  UNL1       -0.2865
    101 C         -26.8510    3.3360   52.0250 C.3     1  UNL1        0.1230
    102 C         -27.7750    2.1170   52.0270 C.2     1  UNL1        0.3282
    103 O         -28.9210    2.1640   52.4620 O.2     1  UNL1       -0.2487
    104 C         -26.2860    3.6250   50.6320 C.3     1  UNL1       -0.0225
    105 C         -24.9190    2.9500   50.6470 C.3     1  UNL1       -0.0349
    106 C         -24.4520    3.1360   52.0810 C.3     1  UNL1        0.0157
    107 H         -27.4450    4.1880   52.3720 H       1  UNL1        0.0616
    108 H         -26.9190    3.2660   49.8140 H       1  UNL1        0.0289
    109 H         -26.1510    4.7070   50.5080 H       1  UNL1        0.0289
    110 H         -25.0190    1.8840   50.4170 H       1  UNL1        0.0281
    111 H         -24.2240    3.3840   49.9220 H       1  UNL1        0.0281
    112 H         -23.8040    2.3240   52.4270 H       1  UNL1        0.0465
    113 H         -23.9200    4.0860   52.2060 H       1  UNL1        0.0465
@<TRIPOS>BOND
     1    19     9    1
     2    21    10    1
     3    20    10    1
     4    10     9    1
     5    10    22    1
     6    15     8    1
     7     9    18    1
     8     9     7    1
     9    14     7    1
    10   108   104    1
    11   111   105    1
    12     7     8    1
    13     7     6    1
    14     8    16    1
    15     8    17    1
    16   110   105    1
    17   109   104    1
    18   104   105    1
    19   104   101    1
    20   105   106    1
    21    54    49    1
    22    53    49    1
    23    49    55    1
    24    49    47    1
    25    48   102    1
    26    48    47    1
    27    12     6    1
    28     6    13    1
    29     6     5    1
    30   101   102    1
    31   101   107    1
    32   101   100    1
    33   102   103    2
    34    11     5    1
    35   106   113    1
    36   106   112    1
    37   106   100    1
    38    46    45    2
    39    69    62    1
    40    47    52    1
    41    47    44    1
    42     5     4    2
    43   100    92   am
    44    45    44    1
    45    45    56   am
    46    62    68    1
    47    62    56    1
    48    62    61    1
    49    44    51    1
    50    44    43    1
    51     4     1    1
    52     4     3    1
    53    56    57    1
    54    67    61    1
    55     2     3    2
    56    65    60    1
    57    92    93    2
    58    92    91    1
    59    50    43    1
    60     3    24   am
    61    61    60    1
    62    61    66    1
    63    98    94    1
    64    43    23   am
    65    96    91    1
    66    63    57    1
    67    60    57    1
    68    60    64    1
    69    57    58    1
    70    91    94    1
    71    91    90    1
    72    94    97    1
    73    94    99    1
    74    23    25    2
    75    23    28    1
    76    24    36    1
    77    24    28    1
    78    79    72    1
    79    37    28    1
    80    28    29    1
    81    58    59    2
    82    58    70   am
    83    90    95    1
    84    90    73   am
    85    72    73    1
    86    72    70    1
    87    72    74    1
    88    73    71    2
    89    70    78    1
    90    29    38    1
    91    29    39    1
    92    29    30    1
    93    80    74    1
    94    81    74    1
    95    74    75    1
    96    42    33    1
    97    30    33   ar
    98    30    32   ar
    99    78    88    1
   100    78    89    1
   101    78    77    1
   102    41    32    1
   103    33    35   ar
   104    32    34   ar
   105    86    77    1
   106    35    27    1
   107    35    31   ar
   108    75    77    1
   109    75    82    1
   110    75    76    1
   111    77    87    1
   112    34    31   ar
   113    34    26    1
   114    31    40    1
   115    83    76    1
   116    85    76    1
   117    76    84    1
