@<TRIPOS>MOLECULE
147.13598
 113 117 0 0 0
SMALL
GASTEIGER

@<TRIPOS>ATOM
      1 H         -23.8470   -0.0820   59.4440 H       1  UNL1        0.0666
      2 O         -26.7980    0.6480   58.1140 O.2     1  UNL1       -0.2708
      3 C         -25.5880    0.6500   58.2920 C.2     1  UNL1        0.2372
      4 C         -24.9180   -0.1810   59.3240 C.2     1  UNL1       -0.0038
      5 C         -25.6230   -1.0400   60.0770 C.2     1  UNL1       -0.0789
      6 C         -25.0100   -1.9210   61.1300 C.3     1  UNL1       -0.0317
      7 C         -25.2020   -3.4280   60.8540 C.3     1  UNL1       -0.0407
      8 C         -24.5720   -3.8410   59.5160 C.3     1  UNL1       -0.0621
      9 C         -24.5980   -4.2960   61.9780 C.3     1  UNL1       -0.0530
     10 C         -25.2620   -4.1000   63.3340 C.3     1  UNL1       -0.0650
     11 H         -26.7000   -1.1200   59.9390 H       1  UNL1        0.0574
     12 H         -25.4810   -1.6530   62.0820 H       1  UNL1        0.0310
     13 H         -23.9400   -1.7030   61.2390 H       1  UNL1        0.0310
     14 H         -26.2780   -3.6410   60.7960 H       1  UNL1        0.0301
     15 H         -24.6870   -4.9170   59.3490 H       1  UNL1        0.0233
     16 H         -25.0500   -3.3320   58.6740 H       1  UNL1        0.0233
     17 H         -23.5020   -3.6080   59.4940 H       1  UNL1        0.0233
     18 H         -23.5240   -4.0970   62.0720 H       1  UNL1        0.0265
     19 H         -24.6980   -5.3540   61.7050 H       1  UNL1        0.0265
     20 H         -26.3460   -4.2350   63.2650 H       1  UNL1        0.0230
     21 H         -24.8740   -4.8330   64.0490 H       1  UNL1        0.0230
     22 H         -25.0590   -3.1060   63.7420 H       1  UNL1        0.0230
     23 C         -24.2640    1.6610   55.2310 C.2     1  UNL1        0.2344
     24 N         -24.7010    1.3860   57.5570 N.am    1  UNL1       -0.3002
     25 O         -23.1130    1.2550   55.3950 O.2     1  UNL1       -0.2737
     26 F         -25.1100    5.1730   61.2260 F       1  UNL1       -0.2054
     27 F         -28.8460    5.7340   58.4140 F       1  UNL1       -0.2054
     28 C         -25.1080    2.1820   56.4010 C.3     1  UNL1        0.1036
     29 C         -24.8040    3.6750   56.5840 C.3     1  UNL1       -0.0005
     30 C         -25.5690    4.3130   57.7180 C.ar    1  UNL1       -0.0397
     31 C         -26.9990    5.4690   59.8510 C.ar    1  UNL1        0.0088
     32 C         -24.9760    4.4640   58.9800 C.ar    1  UNL1       -0.0230
     33 C         -26.8900    4.7450   57.5400 C.ar    1  UNL1       -0.0230
     34 C         -25.6940    5.0370   60.0280 C.ar    1  UNL1        0.1264
     35 C         -27.5870    5.3180   58.6030 C.ar    1  UNL1        0.1264
     36 H         -23.7030    1.2480   57.6720 H       1  UNL1        0.1498
     37 H         -26.1700    2.0190   56.1860 H       1  UNL1        0.0598
     38 H         -23.7280    3.8260   56.7470 H       1  UNL1        0.0336
     39 H         -25.0310    4.2190   55.6570 H       1  UNL1        0.0336
     40 H         -27.5500    5.9140   60.6700 H       1  UNL1        0.0675
     41 H         -23.9570    4.1350   59.1630 H       1  UNL1        0.0649
     42 H         -27.3920    4.6410   56.5810 H       1  UNL1        0.0649
     43 N         -24.8550    1.7270   53.9940 N.am    1  UNL1       -0.2995
     44 C         -24.1210    1.4120   52.7600 C.3     1  UNL1        0.1366
     45 C         -24.5070    2.5230   51.7560 C.2     1  UNL1        0.2402
     46 O         -25.5130    3.2140   51.9730 O.2     1  UNL1       -0.2734
     47 C         -24.3270   -0.0490   52.2900 C.3     1  UNL1        0.1270
     48 O         -25.6190   -0.3530   51.7230 O.3     1  UNL1       -0.4580
     49 C         -24.1110   -1.0640   53.4160 C.3     1  UNL1       -0.0254
     50 H         -25.7680    2.1580   53.8720 H       1  UNL1        0.1496
     51 H         -23.0560    1.5440   52.9830 H       1  UNL1        0.0632
     52 H         -23.5690   -0.2740   51.5430 H       1  UNL1        0.0755
     53 H         -24.8840   -0.9790   54.1870 H       1  UNL1        0.0266
     54 H         -24.1860   -2.0860   53.0340 H       1  UNL1        0.0266
     55 H         -23.1250   -0.9490   53.8760 H       1  UNL1        0.0266
     56 N         -23.7050    2.7670   50.6610 N.am    1  UNL1       -0.2883
     57 C         -22.6420    1.9300   50.0950 C.3     1  UNL1        0.1025
     58 C         -21.3070    1.9980   50.8620 C.2     1  UNL1        0.2367
     59 O         -21.0680    2.9640   51.5900 O.2     1  UNL1       -0.2735
     60 C         -22.4570    2.4660   48.6700 C.3     1  UNL1       -0.0243
     61 C         -22.8590    3.9300   48.7940 C.3     1  UNL1       -0.0350
     62 C         -24.0120    3.8810   49.7810 C.3     1  UNL1        0.0156
     63 H         -23.0000    0.9070   50.0610 H       1  UNL1        0.0597
     64 H         -21.4430    2.3480   48.2760 H       1  UNL1        0.0288
     65 H         -23.1490    1.9540   47.9900 H       1  UNL1        0.0288
     66 H         -22.0280    4.5110   49.2110 H       1  UNL1        0.0281
     67 H         -23.1430    4.3760   47.8370 H       1  UNL1        0.0281
     68 H         -24.1240    4.8080   50.3520 H       1  UNL1        0.0465
     69 H         -24.9600    3.6630   49.2750 H       1  UNL1        0.0465
     70 N         -20.3690    0.9860   50.6450 N.am    1  UNL1       -0.2884
     71 O         -20.2630   -1.6000   52.0250 O.2     1  UNL1       -0.2738
     72 C         -20.6310   -0.3180   49.9780 C.3     1  UNL1        0.1025
     73 C         -20.9290   -1.4490   50.9990 C.2     1  UNL1        0.2342
     74 C         -19.4530   -0.7330   49.0800 C.3     1  UNL1       -0.0231
     75 C         -18.0930   -0.6340   49.7870 C.3     1  UNL1       -0.0403
     76 C         -16.9550   -0.9620   48.8230 C.3     1  UNL1       -0.0623
     77 C         -17.9140    0.7650   50.3800 C.3     1  UNL1       -0.0345
     78 C         -19.0670    1.1290   51.3080 C.3     1  UNL1        0.0158
     79 H         -21.4960   -0.2150   49.3250 H       1  UNL1        0.0597
     80 H         -19.4440   -0.0760   48.1990 H       1  UNL1        0.0290
     81 H         -19.5980   -1.7550   48.7120 H       1  UNL1        0.0290
     82 H         -18.0580   -1.3680   50.6010 H       1  UNL1        0.0299
     83 H         -16.9280   -0.2610   47.9820 H       1  UNL1        0.0232
     84 H         -15.9880   -0.9130   49.3350 H       1  UNL1        0.0232
     85 H         -17.0690   -1.9730   48.4190 H       1  UNL1        0.0232
     86 H         -17.8570    1.5050   49.5710 H       1  UNL1        0.0283
     87 H         -16.9700    0.8230   50.9340 H       1  UNL1        0.0283
     88 H         -18.9170    2.1570   51.6550 H       1  UNL1        0.0465
     89 H         -19.0630    0.5000   52.2030 H       1  UNL1        0.0465
     90 N         -21.9170   -2.3550   50.7750 N.am    1  UNL1       -0.3027
     91 C         -22.9890   -2.4370   49.7800 C.3     1  UNL1        0.0968
     92 C         -24.1120   -3.2760   50.4440 C.2     1  UNL1        0.2363
     93 O         -23.8240   -4.3220   51.0330 O.2     1  UNL1       -0.2736
     94 C         -22.5250   -3.1280   48.5070 C.3     1  UNL1       -0.0381
     95 H         -21.9380   -3.0840   51.4890 H       1  UNL1        0.1495
     96 H         -23.3230   -1.4270   49.5500 H       1  UNL1        0.0592
     97 H         -21.7420   -2.5500   48.0080 H       1  UNL1        0.0252
     98 H         -23.3570   -3.2500   47.8060 H       1  UNL1        0.0252
     99 H         -22.1190   -4.1240   48.7190 H       1  UNL1        0.0252
    100 N         -25.4090   -2.8130   50.4070 N.am    1  UNL1       -0.2865
    101 C         -25.9270   -1.6510   49.6860 C.3     1  UNL1        0.1230
    102 C         -25.6850   -0.2990   50.3670 C.2     1  UNL1        0.3282
    103 O         -25.6160    0.7410   49.7250 O.2     1  UNL1       -0.2487
    104 C         -27.4280   -1.9230   49.5770 C.3     1  UNL1       -0.0225
    105 C         -27.7300   -2.7230   50.8400 C.3     1  UNL1       -0.0349
    106 C         -26.4860   -3.5800   51.0150 C.3     1  UNL1        0.0157
    107 H         -25.4540   -1.6100   48.6980 H       1  UNL1        0.0616
    108 H         -28.0390   -1.0180   49.5040 H       1  UNL1        0.0289
    109 H         -27.6290   -2.5450   48.6960 H       1  UNL1        0.0289
    110 H         -27.8450   -2.0460   51.6940 H       1  UNL1        0.0281
    111 H         -28.6420   -3.3200   50.7570 H       1  UNL1        0.0281
    112 H         -26.2620   -3.7970   52.0640 H       1  UNL1        0.0465
    113 H         -26.5740   -4.5280   50.4710 H       1  UNL1        0.0465
@<TRIPOS>BOND
     1    98    94    1
     2    67    61    1
     3    83    76    1
     4    65    60    1
     5    97    94    1
     6    80    74    1
     7    64    60    1
     8    85    76    1
     9    94    99    1
    10    94    91    1
    11    60    61    1
    12    60    57    1
    13   109   104    1
    14   107   101    1
    15    81    74    1
    16    61    66    1
    17    61    62    1
    18    76    84    1
    19    76    75    1
    20    74    75    1
    21    74    72    1
    22    69    62    1
    23    79    72    1
    24   108   104    1
    25    96    91    1
    26    86    77    1
    27   104   101    1
    28   104   105    1
    29   101   102    1
    30   101   100    1
    31   103   102    2
    32    91    92    1
    33    91    90    1
    34    62    68    1
    35    62    56    1
    36    75    77    1
    37    75    82    1
    38    72    70    1
    39    72    73    1
    40    63    57    1
    41    57    56    1
    42    57    58    1
    43   102    48    1
    44    77    87    1
    45    77    78    1
    46   100    92   am
    47   100   106    1
    48    92    93    2
    49   113   106    1
    50    70    58   am
    51    70    78    1
    52    56    45   am
    53   111   105    1
    54    90    73   am
    55    90    95    1
    56   105   106    1
    57   105   110    1
    58    58    59    2
    59    73    71    2
    60   106   112    1
    61    78    88    1
    62    78    89    1
    63    52    47    1
    64    48    47    1
    65    45    46    2
    66    45    44    1
    67    47    44    1
    68    47    49    1
    69    44    51    1
    70    44    43    1
    71    54    49    1
    72    49    55    1
    73    49    53    1
    74    50    43    1
    75    43    23   am
    76    23    25    2
    77    23    28    1
    78    39    29    1
    79    37    28    1
    80    28    29    1
    81    28    24    1
    82    42    33    1
    83    29    38    1
    84    29    30    1
    85    33    30   ar
    86    33    35   ar
    87    24    36    1
    88    24     3   am
    89    30    32   ar
    90     2     3    2
    91     3     4    1
    92    27    35    1
    93    35    31   ar
    94    16     8    1
    95    32    41    1
    96    32    34   ar
    97     4     1    1
    98     4     5    2
    99    15     8    1
   100    17     8    1
   101     8     7    1
   102    31    34   ar
   103    31    40    1
   104    11     5    1
   105    34    26    1
   106     5     6    1
   107    14     7    1
   108     7     6    1
   109     7     9    1
   110     6    13    1
   111     6    12    1
   112    19     9    1
   113     9    18    1
   114     9    10    1
   115    20    10    1
   116    10    22    1
   117    10    21    1
