@<TRIPOS>MOLECULE
128.81250
 113 117 0 0 0
SMALL
GASTEIGER

@<TRIPOS>ATOM
      1 H         -19.6710   -3.4650   40.4630 H       1  UNL1        0.0666
      2 O         -22.7410   -4.6920   40.1810 O.2     1  UNL1       -0.2708
      3 C         -21.7270   -4.2450   40.7020 C.2     1  UNL1        0.2372
      4 C         -20.5740   -3.7260   39.9250 C.2     1  UNL1       -0.0038
      5 C         -20.6600   -3.5830   38.5930 C.2     1  UNL1       -0.0789
      6 C         -19.5390   -3.0730   37.7310 C.3     1  UNL1       -0.0317
      7 C         -19.8710   -1.7410   37.0240 C.3     1  UNL1       -0.0407
      8 C         -20.1270   -0.6190   38.0390 C.3     1  UNL1       -0.0621
      9 C         -18.7400   -1.3030   36.0700 C.3     1  UNL1       -0.0530
     10 C         -18.5350   -2.2400   34.8880 C.3     1  UNL1       -0.0650
     11 H         -21.5820   -3.8540   38.0800 H       1  UNL1        0.0574
     12 H         -19.3320   -3.8510   36.9880 H       1  UNL1        0.0310
     13 H         -18.6210   -2.9560   38.3210 H       1  UNL1        0.0310
     14 H         -20.7870   -1.8720   36.4330 H       1  UNL1        0.0301
     15 H         -20.3320    0.3280   37.5280 H       1  UNL1        0.0233
     16 H         -20.9930   -0.8390   38.6700 H       1  UNL1        0.0233
     17 H         -19.2590   -0.4690   38.6900 H       1  UNL1        0.0233
     18 H         -17.7970   -1.2090   36.6220 H       1  UNL1        0.0265
     19 H         -18.9720   -0.3080   35.6710 H       1  UNL1        0.0265
     20 H         -19.4710   -2.3960   34.3430 H       1  UNL1        0.0230
     21 H         -17.8060   -1.8110   34.1920 H       1  UNL1        0.0230
     22 H         -18.1500   -3.2140   35.2040 H       1  UNL1        0.0230
     23 C         -22.2970   -3.8090   44.3100 C.2     1  UNL1        0.2344
     24 N         -21.5410   -4.1580   42.0530 N.am    1  UNL1       -0.3002
     25 O         -21.1800   -3.3820   44.5970 O.2     1  UNL1       -0.2737
     26 F         -27.3210   -7.1580   43.3600 F       1  UNL1       -0.2054
     27 F         -24.7660   -7.8090   47.2580 F       1  UNL1       -0.2054
     28 C         -22.5750   -4.5660   43.0000 C.3     1  UNL1        0.1036
     29 C         -22.5530   -6.0870   43.2380 C.3     1  UNL1       -0.0005
     30 C         -23.7740   -6.6040   43.9660 C.ar    1  UNL1       -0.0397
     31 C         -26.0730   -7.4940   45.3270 C.ar    1  UNL1        0.0088
     32 C         -25.0130   -6.6690   43.3110 C.ar    1  UNL1       -0.0230
     33 C         -23.7010   -6.9990   45.3100 C.ar    1  UNL1       -0.0230
     34 C         -26.1440   -7.1090   43.9970 C.ar    1  UNL1        0.1264
     35 C         -24.8470   -7.4380   45.9730 C.ar    1  UNL1        0.1264
     36 H         -20.7020   -3.7460   42.4490 H       1  UNL1        0.1498
     37 H         -23.5440   -4.2400   42.6020 H       1  UNL1        0.0598
     38 H         -22.4850   -6.6200   42.2810 H       1  UNL1        0.0336
     39 H         -21.6470   -6.3670   43.7930 H       1  UNL1        0.0336
     40 H         -26.9580   -7.8300   45.8530 H       1  UNL1        0.0675
     41 H         -25.1130   -6.3770   42.2680 H       1  UNL1        0.0649
     42 H         -22.7650   -6.9580   45.8640 H       1  UNL1        0.0649
     43 N         -23.3830   -3.6710   45.1320 N.am    1  UNL1       -0.2995
     44 C         -23.3170   -3.0950   46.4770 C.3     1  UNL1        0.1366
     45 C         -24.5380   -3.6870   47.2170 C.2     1  UNL1        0.2402
     46 O         -25.6060   -3.8380   46.6070 O.2     1  UNL1       -0.2734
     47 C         -23.3130   -1.5510   46.4660 C.3     1  UNL1        0.1270
     48 O         -23.3950   -1.0680   47.8260 O.3     1  UNL1       -0.4580
     49 C         -24.4720   -0.9340   45.6840 C.3     1  UNL1       -0.0254
     50 H         -24.2890   -4.0400   44.8510 H       1  UNL1        0.1496
     51 H         -22.3990   -3.4550   46.9440 H       1  UNL1        0.0632
     52 H         -22.3710   -1.2230   46.0070 H       1  UNL1        0.0755
     53 H         -25.4360   -1.1710   46.1460 H       1  UNL1        0.0266
     54 H         -24.3930    0.1590   45.6860 H       1  UNL1        0.0266
     55 H         -24.4850   -1.2680   44.6420 H       1  UNL1        0.0266
     56 N         -24.4170   -4.0740   48.5320 N.am    1  UNL1       -0.2883
     57 C         -23.2960   -3.8440   49.4490 C.3     1  UNL1        0.1025
     58 C         -22.0720   -4.7530   49.2020 C.2     1  UNL1        0.2367
     59 O         -22.1950   -5.8040   48.5690 O.2     1  UNL1       -0.2735
     60 C         -23.8920   -4.1300   50.8310 C.3     1  UNL1       -0.0243
     61 C         -24.9500   -5.1880   50.5400 C.3     1  UNL1       -0.0350
     62 C         -25.5170   -4.7450   49.2030 C.3     1  UNL1        0.0156
     63 H         -22.9950   -2.8040   49.3570 H       1  UNL1        0.0597
     64 H         -23.1630   -4.4720   51.5720 H       1  UNL1        0.0288
     65 H         -24.3770   -3.2260   51.2200 H       1  UNL1        0.0288
     66 H         -24.4760   -6.1720   50.4420 H       1  UNL1        0.0281
     67 H         -25.7130   -5.2540   51.3200 H       1  UNL1        0.0281
     68 H         -25.8910   -5.5800   48.6020 H       1  UNL1        0.0465
     69 H         -26.3250   -4.0170   49.3340 H       1  UNL1        0.0465
     70 N         -20.8470   -4.3540   49.7500 N.am    1  UNL1       -0.2884
     71 O         -20.1880   -2.3100   48.0670 O.2     1  UNL1       -0.2738
     72 C         -20.5900   -3.0210   50.3670 C.3     1  UNL1        0.1025
     73 C         -20.2670   -1.9790   49.2520 C.2     1  UNL1        0.2342
     74 C         -19.5450   -3.1480   51.4800 C.3     1  UNL1       -0.0231
     75 C         -18.2650   -3.8380   51.0040 C.3     1  UNL1       -0.0403
     76 C         -17.2490   -3.9390   52.1400 C.3     1  UNL1       -0.0623
     77 C         -18.6230   -5.2260   50.4700 C.3     1  UNL1       -0.0345
     78 C         -19.6690   -5.1410   49.3660 C.3     1  UNL1        0.0158
     79 H         -21.5120   -2.6710   50.8390 H       1  UNL1        0.0597
     80 H         -19.9840   -3.7420   52.2940 H       1  UNL1        0.0290
     81 H         -19.3070   -2.1820   51.9230 H       1  UNL1        0.0290
     82 H         -17.8140   -3.2470   50.1970 H       1  UNL1        0.0299
     83 H         -17.6460   -4.5170   52.9820 H       1  UNL1        0.0232
     84 H         -16.3310   -4.4270   51.7970 H       1  UNL1        0.0232
     85 H         -16.9810   -2.9440   52.5100 H       1  UNL1        0.0232
     86 H         -19.0130   -5.8480   51.2870 H       1  UNL1        0.0283
     87 H         -17.7270   -5.7280   50.0870 H       1  UNL1        0.0283
     88 H         -19.9590   -6.1570   49.0790 H       1  UNL1        0.0465
     89 H         -19.2360   -4.6760   48.4730 H       1  UNL1        0.0465
     90 N         -20.1880   -0.6440   49.5030 N.am    1  UNL1       -0.3027
     91 C         -20.1840    0.1150   50.7510 C.3     1  UNL1        0.0968
     92 C         -20.9220    1.4820   50.6420 C.2     1  UNL1        0.2363
     93 O         -20.4460    2.4890   51.1770 O.2     1  UNL1       -0.2736
     94 C         -18.7330    0.3660   51.1740 C.3     1  UNL1       -0.0381
     95 H         -20.0160   -0.1060   48.6530 H       1  UNL1        0.1495
     96 H         -20.7010   -0.4680   51.5190 H       1  UNL1        0.0592
     97 H         -18.1320   -0.5470   51.1630 H       1  UNL1        0.0252
     98 H         -18.6880    0.7920   52.1820 H       1  UNL1        0.0252
     99 H         -18.2440    1.0730   50.4920 H       1  UNL1        0.0252
    100 N         -22.1910    1.5320   50.1060 N.am    1  UNL1       -0.2865
    101 C         -23.0290    0.4420   49.5990 C.3     1  UNL1        0.1230
    102 C         -22.7500    0.0940   48.1280 C.2     1  UNL1        0.3282
    103 O         -22.0730    0.7570   47.3570 O.2     1  UNL1       -0.2487
    104 C         -24.4490    0.9970   49.7280 C.3     1  UNL1       -0.0225
    105 C         -24.2570    2.4830   49.4400 C.3     1  UNL1       -0.0349
    106 C         -22.9230    2.7920   50.1030 C.3     1  UNL1        0.0157
    107 H         -22.8740   -0.4510   50.2120 H       1  UNL1        0.0616
    108 H         -25.1730    0.5370   49.0500 H       1  UNL1        0.0289
    109 H         -24.8090    0.8670   50.7560 H       1  UNL1        0.0289
    110 H         -24.1890    2.6500   48.3590 H       1  UNL1        0.0281
    111 H         -25.0720    3.1010   49.8270 H       1  UNL1        0.0281
    112 H         -22.3560    3.5630   49.5720 H       1  UNL1        0.0465
    113 H         -23.0620    3.1100   51.1420 H       1  UNL1        0.0465
@<TRIPOS>BOND
     1    21    10    1
     2    20    10    1
     3    10    22    1
     4    10     9    1
     5    19     9    1
     6     9    18    1
     7     9     7    1
     8    14     7    1
     9    12     6    1
    10     7     6    1
    11     7     8    1
    12    15     8    1
    13     6    13    1
    14     6     5    1
    15     8    16    1
    16     8    17    1
    17    11     5    1
    18     5     4    2
    19     4     1    1
    20     4     3    1
    21     2     3    2
    22     3    24   am
    23    24    36    1
    24    24    28    1
    25    41    32    1
    26    38    29    1
    27    37    28    1
    28    28    29    1
    29    28    23    1
    30    29    39    1
    31    29    30    1
    32    32    30   ar
    33    32    34   ar
    34    26    34    1
    35    30    33   ar
    36    34    31   ar
    37    23    25    2
    38    23    43   am
    39    55    49    1
    40    50    43    1
    41    43    44    1
    42    33    42    1
    43    33    35   ar
    44    31    40    1
    45    31    35   ar
    46    49    54    1
    47    49    53    1
    48    49    47    1
    49    35    27    1
    50    52    47    1
    51    47    44    1
    52    47    48    1
    53    44    51    1
    54    44    45    1
    55    46    45    2
    56    45    56   am
    57   103   102    2
    58    48   102    1
    59    71    73    2
    60   102   101    1
    61   110   105    1
    62    89    78    1
    63    56    62    1
    64    56    57    1
    65    59    58    2
    66    68    62    1
    67    95    90    1
    68   108   104    1
    69    88    78    1
    70    58    57    1
    71    58    70   am
    72    62    69    1
    73    62    61    1
    74    73    90   am
    75    73    72    1
    76    63    57    1
    77    78    70    1
    78    78    77    1
    79   105   104    1
    80   105   111    1
    81   105   106    1
    82    57    60    1
    83    90    91    1
    84   112   106    1
    85   101   104    1
    86   101   100    1
    87   101   107    1
    88   104   109    1
    89    70    72    1
    90    87    77    1
    91   106   100    1
    92   106   113    1
    93   100    92   am
    94    82    75    1
    95    72    79    1
    96    72    74    1
    97    66    61    1
    98    77    75    1
    99    77    86    1
   100    99    94    1
   101    61    60    1
   102    61    67    1
   103    92    91    1
   104    92    93    2
   105    91    94    1
   106    91    96    1
   107    60    65    1
   108    60    64    1
   109    75    74    1
   110    75    76    1
   111    97    94    1
   112    94    98    1
   113    74    81    1
   114    74    80    1
   115    84    76    1
   116    76    85    1
   117    76    83    1
