@<TRIPOS>MOLECULE
130.80255
 113 117 0 0 0
SMALL
GASTEIGER

@<TRIPOS>ATOM
      1 H         -28.6710   -6.1910   45.9940 H       1  UNL1        0.0666
      2 O         -30.8320   -5.3460   48.3620 O.2     1  UNL1       -0.2708
      3 C         -29.7580   -5.5650   47.8170 C.2     1  UNL1        0.2372
      4 C         -29.6290   -5.8520   46.3660 C.2     1  UNL1       -0.0038
      5 C         -30.6840   -5.6910   45.5510 C.2     1  UNL1       -0.0789
      6 C         -30.6500   -5.9440   44.0690 C.3     1  UNL1       -0.0317
      7 C         -31.5960   -7.0760   43.6080 C.3     1  UNL1       -0.0407
      8 C         -33.0660   -6.7370   43.8930 C.3     1  UNL1       -0.0621
      9 C         -31.4410   -7.3710   42.1010 C.3     1  UNL1       -0.0530
     10 C         -30.0850   -7.9500   41.7220 C.3     1  UNL1       -0.0650
     11 H         -31.6240   -5.3310   45.9670 H       1  UNL1        0.0574
     12 H         -29.6220   -6.1770   43.7730 H       1  UNL1        0.0310
     13 H         -30.9140   -5.0110   43.5550 H       1  UNL1        0.0310
     14 H         -31.3510   -7.9910   44.1640 H       1  UNL1        0.0301
     15 H         -33.7270   -7.5260   43.5190 H       1  UNL1        0.0233
     16 H         -33.2570   -6.6440   44.9660 H       1  UNL1        0.0233
     17 H         -33.3560   -5.7970   43.4110 H       1  UNL1        0.0233
     18 H         -31.6200   -6.4590   41.5180 H       1  UNL1        0.0265
     19 H         -32.2080   -8.0940   41.7960 H       1  UNL1        0.0265
     20 H         -29.8510   -8.8320   42.3250 H       1  UNL1        0.0230
     21 H         -30.0890   -8.2510   40.6690 H       1  UNL1        0.0230
     22 H         -29.2820   -7.2180   41.8480 H       1  UNL1        0.0230
     23 C         -27.0590   -4.7390   50.2050 C.2     1  UNL1        0.2344
     24 N         -28.5600   -5.5660   48.4750 N.am    1  UNL1       -0.3002
     25 O         -26.0950   -4.9620   49.4750 O.2     1  UNL1       -0.2737
     26 F         -24.9550   -9.3780   51.6360 F       1  UNL1       -0.2054
     27 F         -28.0990  -10.6810   48.3850 F       1  UNL1       -0.2054
     28 C         -28.4670   -5.2830   49.9030 C.3     1  UNL1        0.1036
     29 C         -28.8190   -6.4870   50.7940 C.3     1  UNL1       -0.0005
     30 C         -28.0120   -7.7390   50.5280 C.ar    1  UNL1       -0.0397
     31 C         -26.5060  -10.0610   50.0040 C.ar    1  UNL1        0.0088
     32 C         -26.8250   -7.9930   51.2290 C.ar    1  UNL1       -0.0230
     33 C         -28.4360   -8.6660   49.5640 C.ar    1  UNL1       -0.0230
     34 C         -26.0890   -9.1470   50.9610 C.ar    1  UNL1        0.1264
     35 C         -27.6820   -9.8100   49.3130 C.ar    1  UNL1        0.1264
     36 H         -27.6850   -5.7350   47.9900 H       1  UNL1        0.1498
     37 H         -29.1790   -4.4760   50.1220 H       1  UNL1        0.0598
     38 H         -28.7060   -6.2140   51.8520 H       1  UNL1        0.0336
     39 H         -29.8820   -6.7320   50.6690 H       1  UNL1        0.0336
     40 H         -25.9270  -10.9530   49.8030 H       1  UNL1        0.0675
     41 H         -26.4590   -7.3050   51.9880 H       1  UNL1        0.0649
     42 H         -29.3530   -8.5080   49.0030 H       1  UNL1        0.0649
     43 N         -26.9760   -3.9720   51.3400 N.am    1  UNL1       -0.2995
     44 C         -25.7300   -3.3360   51.8050 C.3     1  UNL1        0.1366
     45 C         -26.0540   -2.8820   53.2410 C.2     1  UNL1        0.2402
     46 O         -27.1260   -2.2970   53.4560 O.2     1  UNL1       -0.2734
     47 C         -25.3190   -2.1640   50.8850 C.3     1  UNL1        0.1270
     48 O         -24.0090   -1.6240   51.1710 O.3     1  UNL1       -0.4580
     49 C         -26.2820   -0.9760   50.9020 C.3     1  UNL1       -0.0254
     50 H         -27.8070   -3.7870   51.8970 H       1  UNL1        0.1496
     51 H         -24.9600   -4.1030   51.7980 H       1  UNL1        0.0632
     52 H         -25.3030   -2.5200   49.8460 H       1  UNL1        0.0755
     53 H         -26.2380   -0.4370   51.8550 H       1  UNL1        0.0266
     54 H         -25.9910   -0.2500   50.1340 H       1  UNL1        0.0266
     55 H         -27.3140   -1.2820   50.7060 H       1  UNL1        0.0266
     56 N         -25.2270   -3.2160   54.2880 N.am    1  UNL1       -0.2883
     57 C         -23.8760   -3.8220   54.2670 C.3     1  UNL1        0.1025
     58 C         -23.8920   -5.2800   53.7340 C.2     1  UNL1        0.2367
     59 O         -24.9530   -5.9090   53.6730 O.2     1  UNL1       -0.2735
     60 C         -23.4210   -3.7230   55.7300 C.3     1  UNL1       -0.0243
     61 C         -24.7170   -3.7010   56.5270 C.3     1  UNL1       -0.0350
     62 C         -25.6420   -2.8980   55.6430 C.3     1  UNL1        0.0156
     63 H         -23.2510   -3.2180   53.6030 H       1  UNL1        0.0597
     64 H         -22.7910   -4.5400   56.0840 H       1  UNL1        0.0288
     65 H         -22.8810   -2.7810   55.8830 H       1  UNL1        0.0288
     66 H         -25.0970   -4.7230   56.6450 H       1  UNL1        0.0281
     67 H         -24.5980   -3.2630   57.5220 H       1  UNL1        0.0281
     68 H         -26.6970   -3.1430   55.8060 H       1  UNL1        0.0465
     69 H         -25.5030   -1.8210   55.7910 H       1  UNL1        0.0465
     70 N         -22.7040   -5.7950   53.2070 N.am    1  UNL1       -0.2884
     71 O         -20.2870   -3.2910   53.8650 O.2     1  UNL1       -0.2738
     72 C         -21.3630   -5.4430   53.7050 C.3     1  UNL1        0.1025
     73 C         -20.6920   -4.1860   53.1210 C.2     1  UNL1        0.2342
     74 C         -20.3780   -6.6290   53.7190 C.3     1  UNL1       -0.0231
     75 C         -20.4620   -7.5270   52.4830 C.3     1  UNL1       -0.0403
     76 C         -19.5410   -8.7380   52.6280 C.3     1  UNL1       -0.0623
     77 C         -21.9110   -7.9680   52.2830 C.3     1  UNL1       -0.0345
     78 C         -22.8130   -6.7570   52.1110 C.3     1  UNL1        0.0158
     79 H         -21.4880   -5.1910   54.7590 H       1  UNL1        0.0597
     80 H         -20.6020   -7.2410   54.6050 H       1  UNL1        0.0290
     81 H         -19.3490   -6.2700   53.8500 H       1  UNL1        0.0290
     82 H         -20.1330   -6.9630   51.6020 H       1  UNL1        0.0299
     83 H         -19.8210   -9.3520   53.4910 H       1  UNL1        0.0232
     84 H         -19.5870   -9.3700   51.7350 H       1  UNL1        0.0232
     85 H         -18.5020   -8.4210   52.7610 H       1  UNL1        0.0232
     86 H         -22.2490   -8.5590   53.1440 H       1  UNL1        0.0283
     87 H         -21.9940   -8.6120   51.3990 H       1  UNL1        0.0283
     88 H         -23.8480   -7.0850   51.9820 H       1  UNL1        0.0465
     89 H         -22.5490   -6.2250   51.1910 H       1  UNL1        0.0465
     90 N         -20.4530   -4.1650   51.7750 N.am    1  UNL1       -0.3027
     91 C         -19.4950   -3.2290   51.1970 C.3     1  UNL1        0.0968
     92 C         -19.8200   -2.9470   49.7180 C.2     1  UNL1        0.2363
     93 O         -19.2110   -3.5120   48.8070 O.2     1  UNL1       -0.2736
     94 C         -18.0790   -3.7920   51.3350 C.3     1  UNL1       -0.0381
     95 H         -20.9420   -4.8030   51.1540 H       1  UNL1        0.1495
     96 H         -19.5230   -2.2850   51.7510 H       1  UNL1        0.0592
     97 H         -17.8100   -3.9230   52.3890 H       1  UNL1        0.0252
     98 H         -17.3450   -3.1200   50.8790 H       1  UNL1        0.0252
     99 H         -17.9890   -4.7700   50.8490 H       1  UNL1        0.0252
    100 N         -20.8320   -2.0500   49.4470 N.am    1  UNL1       -0.2865
    101 C         -21.7580   -1.4070   50.3920 C.3     1  UNL1        0.1230
    102 C         -22.9600   -2.3310   50.6640 C.2     1  UNL1        0.3282
    103 O         -22.9770   -3.5400   50.4740 O.2     1  UNL1       -0.2487
    104 C         -22.1760   -0.1520   49.6170 C.3     1  UNL1       -0.0225
    105 C         -22.2520   -0.6510   48.1750 C.3     1  UNL1       -0.0349
    106 C         -21.0860   -1.6250   48.0800 C.3     1  UNL1        0.0157
    107 H         -21.2770   -1.1700   51.3430 H       1  UNL1        0.0616
    108 H         -23.1160    0.2990   49.9440 H       1  UNL1        0.0289
    109 H         -21.3910    0.6100   49.6950 H       1  UNL1        0.0289
    110 H         -23.1980   -1.1800   48.0100 H       1  UNL1        0.0281
    111 H         -22.1840    0.1560   47.4410 H       1  UNL1        0.0281
    112 H         -21.3110   -2.4890   47.4470 H       1  UNL1        0.0465
    113 H         -20.1830   -1.1360   47.7000 H       1  UNL1        0.0465
@<TRIPOS>BOND
     1    21    10    1
     2    18     9    1
     3    10    22    1
     4    10     9    1
     5    10    20    1
     6    19     9    1
     7     9     7    1
     8    17     8    1
     9    15     8    1
    10    13     6    1
    11     7     8    1
    12     7     6    1
    13     7    14    1
    14    12     6    1
    15     8    16    1
    16     6     5    1
    17     5    11    1
    18     5     4    2
    19     1     4    1
    20     4     3    1
    21   111   105    1
    22   112   106    1
    23   113   106    1
    24     3     2    2
    25     3    24   am
    26    36    24    1
    27   110   105    1
    28   106   105    1
    29   106   100    1
    30   105   104    1
    31    27    35    1
    32    24    28    1
    33    93    92    2
    34    42    33    1
    35    35    33   ar
    36    35    31   ar
    37   100    92   am
    38   100   101    1
    39    25    23    2
    40    33    30   ar
    41   104   109    1
    42   104   108    1
    43   104   101    1
    44    92    91    1
    45    40    31    1
    46    52    47    1
    47    28    37    1
    48    28    23    1
    49    28    29    1
    50    31    34   ar
    51    54    49    1
    52    23    43   am
    53   101   102    1
    54   101   107    1
    55   103   102    2
    56    30    29    1
    57    30    32   ar
    58   102    48    1
    59    39    29    1
    60    55    49    1
    61    29    38    1
    62    99    94    1
    63    98    94    1
    64    47    49    1
    65    47    48    1
    66    47    44    1
    67    49    53    1
    68    34    32   ar
    69    34    26    1
    70    95    90    1
    71    89    78    1
    72    91    94    1
    73    91    96    1
    74    91    90    1
    75    32    41    1
    76    94    97    1
    77    43    44    1
    78    43    50    1
    79    87    77    1
    80    82    75    1
    81    84    76    1
    82    90    73   am
    83    51    44    1
    84    44    45    1
    85    88    78    1
    86    78    77    1
    87    78    70    1
    88    77    75    1
    89    77    86    1
    90    75    76    1
    91    75    74    1
    92    76    85    1
    93    76    83    1
    94    73    72    1
    95    73    71    2
    96    70    72    1
    97    70    58   am
    98    45    46    2
    99    45    56   am
   100    63    57    1
   101    59    58    2
   102    72    74    1
   103    72    79    1
   104    74    81    1
   105    74    80    1
   106    58    57    1
   107    57    56    1
   108    57    60    1
   109    56    62    1
   110    62    69    1
   111    62    68    1
   112    62    61    1
   113    60    65    1
   114    60    64    1
   115    60    61    1
   116    61    66    1
   117    61    67    1
