@<TRIPOS>MOLECULE
131.85724
 113 117 0 0 0
SMALL
GASTEIGER

@<TRIPOS>ATOM
      1 H         -30.8780   -1.6960   53.7120 H       1  UNL1        0.0666
      2 O         -28.6800   -2.4710   56.0800 O.2     1  UNL1       -0.2708
      3 C         -29.3150   -2.5360   55.0350 C.2     1  UNL1        0.2372
      4 C         -30.3630   -1.5580   54.6550 C.2     1  UNL1       -0.0038
      5 C         -30.6610   -0.5310   55.4650 C.2     1  UNL1       -0.0789
      6 C         -31.7130    0.4990   55.1570 C.3     1  UNL1       -0.0317
      7 C         -31.1600    1.9380   55.0970 C.3     1  UNL1       -0.0407
      8 C         -30.0820    2.0820   54.0130 C.3     1  UNL1       -0.0621
      9 C         -32.2780    2.9690   54.8300 C.3     1  UNL1       -0.0530
     10 C         -33.3240    3.0430   55.9330 C.3     1  UNL1       -0.0650
     11 H         -30.1340   -0.4200   56.4120 H       1  UNL1        0.0574
     12 H         -32.4700    0.4230   55.9450 H       1  UNL1        0.0310
     13 H         -32.2200    0.2600   54.2130 H       1  UNL1        0.0310
     14 H         -30.6950    2.1790   56.0620 H       1  UNL1        0.0301
     15 H         -29.7210    3.1150   53.9590 H       1  UNL1        0.0233
     16 H         -29.2150    1.4480   54.2230 H       1  UNL1        0.0233
     17 H         -30.4740    1.8100   53.0270 H       1  UNL1        0.0233
     18 H         -32.7750    2.7460   53.8780 H       1  UNL1        0.0265
     19 H         -31.8280    3.9640   54.7250 H       1  UNL1        0.0265
     20 H         -32.8570    3.2070   56.9090 H       1  UNL1        0.0230
     21 H         -34.0090    3.8760   55.7420 H       1  UNL1        0.0230
     22 H         -33.9250    2.1310   55.9820 H       1  UNL1        0.0230
     23 C         -26.7870   -3.9410   53.6870 C.2     1  UNL1        0.2344
     24 N         -29.1140   -3.5010   54.0840 N.am    1  UNL1       -0.3002
     25 O         -26.5170   -3.9600   52.4880 O.2     1  UNL1       -0.2737
     26 F         -33.1000   -7.2230   52.9790 F       1  UNL1       -0.2054
     27 F         -30.9370   -8.1150   57.0650 F       1  UNL1       -0.2054
     28 C         -28.0880   -4.5270   54.2580 C.3     1  UNL1        0.1036
     29 C         -28.4440   -5.8290   53.5240 C.3     1  UNL1       -0.0005
     30 C         -29.7000   -6.4870   54.0520 C.ar    1  UNL1       -0.0397
     31 C         -32.0530   -7.6850   55.0370 C.ar    1  UNL1        0.0088
     32 C         -30.8510   -6.5670   53.2550 C.ar    1  UNL1       -0.0230
     33 C         -29.7430   -7.0230   55.3480 C.ar    1  UNL1       -0.0230
     34 C         -32.0090   -7.1610   53.7540 C.ar    1  UNL1        0.1264
     35 C         -30.9140   -7.6110   55.8240 C.ar    1  UNL1        0.1264
     36 H         -29.5750   -3.4380   53.1860 H       1  UNL1        0.1498
     37 H         -27.9510   -4.7230   55.3280 H       1  UNL1        0.0598
     38 H         -28.5600   -5.6370   52.4490 H       1  UNL1        0.0336
     39 H         -27.6160   -6.5450   53.6100 H       1  UNL1        0.0336
     40 H         -32.9580   -8.1430   55.4170 H       1  UNL1        0.0675
     41 H         -30.8630   -6.1730   52.2420 H       1  UNL1        0.0649
     42 H         -28.8750   -6.9890   56.0010 H       1  UNL1        0.0649
     43 N         -26.0200   -3.2680   54.6060 N.am    1  UNL1       -0.2995
     44 C         -24.7650   -2.6080   54.2560 C.3     1  UNL1        0.1366
     45 C         -23.8730   -2.6250   55.5140 C.2     1  UNL1        0.2402
     46 O         -24.3570   -2.3710   56.6230 O.2     1  UNL1       -0.2734
     47 C         -24.9750   -1.1750   53.7180 C.3     1  UNL1        0.1270
     48 O         -23.6860   -0.5360   53.5570 O.3     1  UNL1       -0.4580
     49 C         -25.8220   -0.2840   54.6280 C.3     1  UNL1       -0.0254
     50 H         -26.3620   -3.1520   55.5610 H       1  UNL1        0.1496
     51 H         -24.2930   -3.1970   53.4670 H       1  UNL1        0.0632
     52 H         -25.4810   -1.2580   52.7480 H       1  UNL1        0.0755
     53 H         -25.3330   -0.1170   55.5930 H       1  UNL1        0.0266
     54 H         -25.9510    0.7060   54.1770 H       1  UNL1        0.0266
     55 H         -26.8160   -0.7040   54.8000 H       1  UNL1        0.0266
     56 N         -22.5340   -2.9350   55.3800 N.am    1  UNL1       -0.2883
     57 C         -21.7760   -3.1900   54.1470 C.3     1  UNL1        0.1025
     58 C         -22.1090   -4.5610   53.5100 C.2     1  UNL1        0.2367
     59 O         -22.6400   -5.4430   54.1900 O.2     1  UNL1       -0.2735
     60 C         -20.3150   -3.1490   54.6070 C.3     1  UNL1       -0.0243
     61 C         -20.3860   -3.6330   56.0510 C.3     1  UNL1       -0.0350
     62 C         -21.6850   -3.0280   56.5540 C.3     1  UNL1        0.0156
     63 H         -22.0000   -2.3980   53.4310 H       1  UNL1        0.0597
     64 H         -19.6380   -3.7660   54.0090 H       1  UNL1        0.0288
     65 H         -19.9500   -2.1150   54.5850 H       1  UNL1        0.0288
     66 H         -20.4460   -4.7280   56.0740 H       1  UNL1        0.0281
     67 H         -19.5210   -3.3270   56.6460 H       1  UNL1        0.0281
     68 H         -22.1590   -3.6300   57.3350 H       1  UNL1        0.0465
     69 H         -21.5310   -2.0130   56.9370 H       1  UNL1        0.0465
     70 N         -21.7900   -4.7530   52.1660 N.am    1  UNL1       -0.2884
     71 O         -23.1710   -3.2180   50.1060 O.2     1  UNL1       -0.2738
     72 C         -21.1140   -3.7600   51.2940 C.3     1  UNL1        0.1025
     73 C         -22.1020   -2.8170   50.5650 C.2     1  UNL1        0.2342
     74 C         -20.1830   -4.4380   50.2710 C.3     1  UNL1       -0.0231
     75 C         -20.8280   -5.6260   49.5470 C.3     1  UNL1       -0.0403
     76 C         -19.8230   -6.3040   48.6180 C.3     1  UNL1       -0.0623
     77 C         -21.3720   -6.6160   50.5750 C.3     1  UNL1       -0.0345
     78 C         -22.3600   -5.9340   51.5090 C.3     1  UNL1        0.0158
     79 H         -20.4880   -3.1370   51.9320 H       1  UNL1        0.0597
     80 H         -19.2880   -4.7900   50.8030 H       1  UNL1        0.0290
     81 H         -19.8420   -3.7180   49.5200 H       1  UNL1        0.0290
     82 H         -21.6600   -5.2590   48.9310 H       1  UNL1        0.0299
     83 H         -18.9650   -6.6960   49.1740 H       1  UNL1        0.0232
     84 H         -20.2900   -7.1390   48.0850 H       1  UNL1        0.0232
     85 H         -19.4480   -5.5980   47.8700 H       1  UNL1        0.0232
     86 H         -20.5460   -7.0370   51.1620 H       1  UNL1        0.0283
     87 H         -21.8660   -7.4530   50.0690 H       1  UNL1        0.0283
     88 H         -22.7060   -6.6660   52.2470 H       1  UNL1        0.0465
     89 H         -23.2490   -5.6100   50.9570 H       1  UNL1        0.0465
     90 N         -21.7820   -1.5050   50.3660 N.am    1  UNL1       -0.3027
     91 C         -20.6650   -0.6870   50.8480 C.3     1  UNL1        0.0968
     92 C         -20.9670    0.7950   50.5110 C.2     1  UNL1        0.2363
     93 O         -20.6330    1.2720   49.4230 O.2     1  UNL1       -0.2736
     94 C         -19.3290   -1.0580   50.2050 C.3     1  UNL1       -0.0381
     95 H         -22.4940   -1.0240   49.8180 H       1  UNL1        0.1495
     96 H         -20.5770   -0.8270   51.9270 H       1  UNL1        0.0592
     97 H         -18.9310   -1.9870   50.6200 H       1  UNL1        0.0252
     98 H         -18.5760   -0.2840   50.3900 H       1  UNL1        0.0252
     99 H         -19.4260   -1.1830   49.1210 H       1  UNL1        0.0252
    100 N         -21.6930    1.5400   51.4120 N.am    1  UNL1       -0.2865
    101 C         -22.2450    1.1290   52.7040 C.3     1  UNL1        0.1230
    102 C         -23.5710    0.3720   52.5490 C.2     1  UNL1        0.3282
    103 O         -24.4180    0.6000   51.6980 O.2     1  UNL1       -0.2487
    104 C         -22.4910    2.4510   53.4310 C.3     1  UNL1       -0.0225
    105 C         -22.8500    3.4090   52.2990 C.3     1  UNL1       -0.0349
    106 C         -21.9670    2.9450   51.1500 C.3     1  UNL1        0.0157
    107 H         -21.5260    0.5030   53.2400 H       1  UNL1        0.0616
    108 H         -23.2760    2.3970   54.1920 H       1  UNL1        0.0289
    109 H         -21.5660    2.7890   53.9140 H       1  UNL1        0.0289
    110 H         -23.9070    3.2960   52.0320 H       1  UNL1        0.0281
    111 H         -22.6810    4.4570   52.5600 H       1  UNL1        0.0281
    112 H         -22.4470    3.0690   50.1740 H       1  UNL1        0.0465
    113 H         -21.0100    3.4790   51.1400 H       1  UNL1        0.0465
@<TRIPOS>BOND
     1    85    76    1
     2    84    76    1
     3    76    83    1
     4    76    75    1
     5    82    75    1
     6    99    94    1
     7    93    92    2
     8    81    74    1
     9    75    74    1
    10    75    77    1
    11    95    90    1
    12    87    77    1
    13    71    73    2
    14   112   106    1
    15    94    98    1
    16    94    97    1
    17    94    91    1
    18    74    80    1
    19    74    72    1
    20    90    73   am
    21    90    91    1
    22    92    91    1
    23    92   100   am
    24    73    72    1
    25    77    86    1
    26    77    78    1
    27    91    96    1
    28    89    78    1
    29   113   106    1
    30   106   100    1
    31   106   105    1
    32    72    79    1
    33    72    70    1
    34   100   101    1
    35    78    70    1
    36    78    88    1
    37   103   102    2
    38   110   105    1
    39    70    58   am
    40    41    32    1
    41   105   111    1
    42   105   104    1
    43    38    29    1
    44    25    23    2
    45   102   101    1
    46   102    48    1
    47   101   107    1
    48   101   104    1
    49    52    47    1
    50    26    34    1
    51    17     8    1
    52    36    24    1
    53    32    34   ar
    54    32    30   ar
    55    63    57    1
    56   104   109    1
    57   104   108    1
    58    51    44    1
    59    58    57    1
    60    58    59    2
    61    29    39    1
    62    29    30    1
    63    29    28    1
    64    48    47    1
    65    23    28    1
    66    23    43   am
    67     1     4    1
    68    47    44    1
    69    47    49    1
    70    34    31   ar
    71    18     9    1
    72    15     8    1
    73    64    60    1
    74     8    16    1
    75     8     7    1
    76    30    33   ar
    77    24    28    1
    78    24     3   am
    79    57    60    1
    80    57    56    1
    81    54    49    1
    82    13     6    1
    83    44    43    1
    84    44    45    1
    85    28    37    1
    86    65    60    1
    87    43    50    1
    88    60    61    1
    89    49    55    1
    90    49    53    1
    91     4     3    1
    92     4     5    2
    93    19     9    1
    94     9     7    1
    95     9    10    1
    96     3     2    2
    97    31    40    1
    98    31    35   ar
    99     7     6    1
   100     7    14    1
   101     6     5    1
   102     6    12    1
   103    33    35   ar
   104    33    42    1
   105    56    45   am
   106    56    62    1
   107     5    11    1
   108    45    46    2
   109    21    10    1
   110    35    27    1
   111    10    22    1
   112    10    20    1
   113    61    66    1
   114    61    62    1
   115    61    67    1
   116    62    69    1
   117    62    68    1
