@<TRIPOS>MOLECULE
110.09078
 113 117 0 0 0
SMALL
GASTEIGER

@<TRIPOS>ATOM
      1 H         -21.1910   -7.4930   55.2940 H       1  UNL1        0.0666
      2 O         -19.9120   -5.7630   57.8220 O.2     1  UNL1       -0.2708
      3 C         -20.2190   -6.0600   56.6740 C.2     1  UNL1        0.2372
      4 C         -21.0130   -7.2690   56.3390 C.2     1  UNL1       -0.0038
      5 C         -21.4960   -8.0420   57.3240 C.2     1  UNL1       -0.0789
      6 C         -22.3100   -9.2860   57.1080 C.3     1  UNL1       -0.0317
      7 C         -23.7240   -9.1880   57.7190 C.3     1  UNL1       -0.0407
      8 C         -24.5610   -8.1190   57.0020 C.3     1  UNL1       -0.0621
      9 C         -24.4690  -10.5370   57.6600 C.3     1  UNL1       -0.0530
     10 C         -23.8630  -11.6080   58.5570 C.3     1  UNL1       -0.0650
     11 H         -21.2900   -7.7790   58.3610 H       1  UNL1        0.0574
     12 H         -21.7540  -10.1100   57.5700 H       1  UNL1        0.0310
     13 H         -22.3830   -9.5210   56.0380 H       1  UNL1        0.0310
     14 H         -23.6380   -8.8910   58.7730 H       1  UNL1        0.0301
     15 H         -25.5680   -8.0640   57.4290 H       1  UNL1        0.0233
     16 H         -24.1130   -7.1260   57.1020 H       1  UNL1        0.0233
     17 H         -24.6590   -8.3440   55.9340 H       1  UNL1        0.0233
     18 H         -24.5020  -10.9060   56.6280 H       1  UNL1        0.0265
     19 H         -25.5090  -10.3880   57.9760 H       1  UNL1        0.0265
     20 H         -23.7750  -11.2530   59.5890 H       1  UNL1        0.0230
     21 H         -24.5010  -12.4980   58.5600 H       1  UNL1        0.0230
     22 H         -22.8730  -11.9160   58.2110 H       1  UNL1        0.0230
     23 C         -19.3240   -3.2430   54.4390 C.2     1  UNL1        0.2344
     24 N         -19.8870   -5.3060   55.5820 N.am    1  UNL1       -0.3002
     25 O         -19.3210   -3.7660   53.3240 O.2     1  UNL1       -0.2737
     26 F         -16.7740   -0.7820   59.2850 F       1  UNL1       -0.2054
     27 F         -14.3560   -0.7620   55.2450 F       1  UNL1       -0.2054
     28 C         -19.1530   -4.0520   55.7330 C.3     1  UNL1        0.1036
     29 C         -17.6580   -4.2940   55.9980 C.3     1  UNL1       -0.0005
     30 C         -16.9190   -3.0540   56.4450 C.ar    1  UNL1       -0.0397
     31 C         -15.5550   -0.7330   57.2710 C.ar    1  UNL1        0.0088
     32 C         -17.1830   -2.4760   57.6950 C.ar    1  UNL1       -0.0230
     33 C         -15.9540   -2.4590   55.6200 C.ar    1  UNL1       -0.0230
     34 C         -16.5050   -1.3240   58.0900 C.ar    1  UNL1        0.1264
     35 C         -15.2840   -1.3120   56.0400 C.ar    1  UNL1        0.1264
     36 H         -20.2220   -5.5600   54.6510 H       1  UNL1        0.1498
     37 H         -19.6170   -3.5040   56.5630 H       1  UNL1        0.0598
     38 H         -17.5220   -5.0570   56.7750 H       1  UNL1        0.0336
     39 H         -17.1820   -4.7080   55.0990 H       1  UNL1        0.0336
     40 H         -15.0330    0.1620   57.5860 H       1  UNL1        0.0675
     41 H         -17.9110   -2.9160   58.3740 H       1  UNL1        0.0649
     42 H         -15.7140   -2.8760   54.6440 H       1  UNL1        0.0649
     43 N         -19.4900   -1.8910   54.6120 N.am    1  UNL1       -0.2995
     44 C         -19.6000   -0.9540   53.4950 C.3     1  UNL1        0.1366
     45 C         -18.3430   -0.0730   53.5740 C.2     1  UNL1        0.2402
     46 O         -18.1350    0.6210   54.5730 O.2     1  UNL1       -0.2734
     47 C         -20.8920   -0.1110   53.5620 C.3     1  UNL1        0.1270
     48 O         -22.0120   -0.9430   53.1510 O.3     1  UNL1       -0.4580
     49 C         -20.8840    1.0560   52.5750 C.3     1  UNL1       -0.0254
     50 H         -19.4250   -1.4930   55.5450 H       1  UNL1        0.1496
     51 H         -19.6280   -1.5350   52.5760 H       1  UNL1        0.0632
     52 H         -21.0620    0.2910   54.5690 H       1  UNL1        0.0755
     53 H         -20.7170    0.7030   51.5510 H       1  UNL1        0.0266
     54 H         -21.8580    1.5590   52.5760 H       1  UNL1        0.0266
     55 H         -20.1200    1.7980   52.8220 H       1  UNL1        0.0266
     56 N         -17.4590   -0.1190   52.5200 N.am    1  UNL1       -0.2883
     57 C         -17.6220   -0.8410   51.2530 C.3     1  UNL1        0.1025
     58 C         -17.3220   -2.3610   51.3770 C.2     1  UNL1        0.2367
     59 O         -16.5170   -2.7620   52.2220 O.2     1  UNL1       -0.2735
     60 C         -16.5930   -0.1860   50.3280 C.3     1  UNL1       -0.0243
     61 C         -15.4810    0.2340   51.2850 C.3     1  UNL1       -0.0350
     62 C         -16.2380    0.6660   52.5300 C.3     1  UNL1        0.0156
     63 H         -18.6400   -0.6640   50.9070 H       1  UNL1        0.0597
     64 H         -16.2300   -0.8440   49.5330 H       1  UNL1        0.0288
     65 H         -17.0280    0.7070   49.8620 H       1  UNL1        0.0288
     66 H         -14.8390   -0.6260   51.5130 H       1  UNL1        0.0281
     67 H         -14.8490    1.0290   50.8800 H       1  UNL1        0.0281
     68 H         -15.6750    0.5000   53.4520 H       1  UNL1        0.0465
     69 H         -16.5190    1.7240   52.4790 H       1  UNL1        0.0465
     70 N         -17.9160   -3.2330   50.4630 N.am    1  UNL1       -0.2884
     71 O         -21.3180   -2.7150   49.0770 O.2     1  UNL1       -0.2738
     72 C         -18.9300   -2.8500   49.4610 C.3     1  UNL1        0.1025
     73 C         -20.4190   -3.0910   49.8330 C.2     1  UNL1        0.2342
     74 C         -18.6160   -3.4660   48.0860 C.3     1  UNL1       -0.0231
     75 C         -18.3510   -4.9730   48.1660 C.3     1  UNL1       -0.0403
     76 C         -17.9850   -5.5280   46.7910 C.3     1  UNL1       -0.0623
     77 C         -17.2310   -5.2400   49.1760 C.3     1  UNL1       -0.0345
     78 C         -17.5790   -4.6600   50.5430 C.3     1  UNL1        0.0158
     79 H         -18.8750   -1.7700   49.3040 H       1  UNL1        0.0597
     80 H         -17.7240   -2.9690   47.6800 H       1  UNL1        0.0290
     81 H         -19.4300   -3.2690   47.3780 H       1  UNL1        0.0290
     82 H         -19.2640   -5.4790   48.5050 H       1  UNL1        0.0299
     83 H         -17.0770   -5.0580   46.3980 H       1  UNL1        0.0232
     84 H         -17.8130   -6.6080   46.8410 H       1  UNL1        0.0232
     85 H         -18.7940   -5.3510   46.0740 H       1  UNL1        0.0232
     86 H         -16.2940   -4.7910   48.8210 H       1  UNL1        0.0283
     87 H         -17.0560   -6.3170   49.2710 H       1  UNL1        0.0283
     88 H         -16.7400   -4.8300   51.2250 H       1  UNL1        0.0465
     89 H         -18.4360   -5.1960   50.9630 H       1  UNL1        0.0465
     90 N         -20.6970   -3.7610   50.9990 N.am    1  UNL1       -0.3027
     91 C         -22.0530   -4.1970   51.3210 C.3     1  UNL1        0.0968
     92 C         -22.2030   -4.6990   52.7810 C.2     1  UNL1        0.2363
     93 O         -21.5830   -5.6920   53.1800 O.2     1  UNL1       -0.2736
     94 C         -22.4670   -5.3610   50.4110 C.3     1  UNL1       -0.0381
     95 H         -19.9620   -3.9280   51.6930 H       1  UNL1        0.1495
     96 H         -22.7250   -3.3640   51.1160 H       1  UNL1        0.0592
     97 H         -22.4900   -5.0620   49.3590 H       1  UNL1        0.0252
     98 H         -23.4640   -5.7300   50.6770 H       1  UNL1        0.0252
     99 H         -21.7660   -6.2000   50.4960 H       1  UNL1        0.0252
    100 N         -23.0850   -4.0450   53.6170 N.am    1  UNL1       -0.2865
    101 C         -23.6020   -2.6800   53.5050 C.3     1  UNL1        0.1230
    102 C         -22.5920   -1.6980   54.1250 C.2     1  UNL1        0.3282
    103 O         -22.2910   -1.6540   55.3110 O.2     1  UNL1       -0.2487
    104 C         -24.8850   -2.7270   54.3320 C.3     1  UNL1       -0.0225
    105 C         -24.5670   -3.7170   55.4520 C.3     1  UNL1       -0.0349
    106 C         -23.5510   -4.6750   54.8430 C.3     1  UNL1        0.0157
    107 H         -23.8190   -2.3890   52.4760 H       1  UNL1        0.0616
    108 H         -25.1930   -1.7500   54.7190 H       1  UNL1        0.0289
    109 H         -25.7030   -3.1270   53.7210 H       1  UNL1        0.0289
    110 H         -24.1280   -3.1960   56.3100 H       1  UNL1        0.0281
    111 H         -25.4610   -4.2360   55.8120 H       1  UNL1        0.0281
    112 H         -22.7080   -4.8460   55.5170 H       1  UNL1        0.0465
    113 H         -23.9980   -5.6420   54.5920 H       1  UNL1        0.0465
@<TRIPOS>BOND
     1    85    76    1
     2    83    76    1
     3    76    84    1
     4    76    75    1
     5    81    74    1
     6    80    74    1
     7    74    75    1
     8    74    72    1
     9    75    82    1
    10    75    77    1
    11    86    77    1
    12    71    73    2
    13    77    87    1
    14    77    78    1
    15    79    72    1
    16    97    94    1
    17    72    73    1
    18    72    70    1
    19    64    60    1
    20    73    90   am
    21    65    60    1
    22    60    57    1
    23    60    61    1
    24    94    99    1
    25    94    98    1
    26    94    91    1
    27    70    78    1
    28    70    58   am
    29    78    89    1
    30    78    88    1
    31    67    61    1
    32    63    57    1
    33    90    91    1
    34    90    95    1
    35    96    91    1
    36    57    58    1
    37    57    56    1
    38    61    66    1
    39    61    62    1
    40    91    92    1
    41    58    59    2
    42    53    49    1
    43   107   101    1
    44    69    62    1
    45    56    62    1
    46    56    45   am
    47    62    68    1
    48    49    54    1
    49    49    55    1
    50    49    47    1
    51    51    44    1
    52    92    93    2
    53    92   100   am
    54    48    47    1
    55    48   102    1
    56    25    23    2
    57    44    47    1
    58    44    45    1
    59    44    43    1
    60   101   100    1
    61   101   102    1
    62   101   104    1
    63    47    52    1
    64    45    46    2
    65   100   106    1
    66   109   104    1
    67   102   103    2
    68   104   108    1
    69   104   105    1
    70    23    43   am
    71    23    28    1
    72   113   106    1
    73    43    50    1
    74    42    33    1
    75    36    24    1
    76   106   105    1
    77   106   112    1
    78    39    29    1
    79    27    35    1
    80     1     4    1
    81   105   111    1
    82   105   110    1
    83    24    28    1
    84    24     3   am
    85    33    35   ar
    86    33    30   ar
    87    28    29    1
    88    28    37    1
    89    17     8    1
    90    29    30    1
    91    29    38    1
    92    13     6    1
    93    35    31   ar
    94     4     3    1
    95     4     5    2
    96    30    32   ar
    97    18     9    1
    98     3     2    2
    99     8    16    1
   100     8    15    1
   101     8     7    1
   102     6     5    1
   103     6    12    1
   104     6     7    1
   105    31    40    1
   106    31    34   ar
   107     5    11    1
   108     9     7    1
   109     9    19    1
   110     9    10    1
   111    32    34   ar
   112    32    41    1
   113     7    14    1
   114    34    26    1
   115    22    10    1
   116    10    21    1
   117    10    20    1
