@<TRIPOS>MOLECULE
128.97543
 113 117 0 0 0
SMALL
GASTEIGER

@<TRIPOS>ATOM
      1 H         -20.7280   -3.6770   40.2170 H       1  UNL1        0.0666
      2 O         -23.9920   -4.1210   39.8370 O.2     1  UNL1       -0.2708
      3 C         -22.9160   -3.9450   40.3910 C.2     1  UNL1        0.2372
      4 C         -21.6540   -3.6820   39.6560 C.2     1  UNL1       -0.0038
      5 C         -21.6700   -3.4480   38.3350 C.2     1  UNL1       -0.0789
      6 C         -20.4380   -3.1710   37.5200 C.3     1  UNL1       -0.0317
      7 C         -20.4190   -1.7480   36.9260 C.3     1  UNL1       -0.0407
      8 C         -20.3150   -0.6770   38.0180 C.3     1  UNL1       -0.0621
      9 C         -19.3050   -1.5850   35.8710 C.3     1  UNL1       -0.0530
     10 C         -17.8840   -1.7660   36.3860 C.3     1  UNL1       -0.0650
     11 H         -22.6180   -3.4580   37.7970 H       1  UNL1        0.0574
     12 H         -20.4050   -3.9080   36.7070 H       1  UNL1        0.0310
     13 H         -19.5400   -3.3380   38.1280 H       1  UNL1        0.0310
     14 H         -21.3700   -1.5830   36.4010 H       1  UNL1        0.0301
     15 H         -20.2200    0.3210   37.5770 H       1  UNL1        0.0233
     16 H         -21.2110   -0.6700   38.6480 H       1  UNL1        0.0233
     17 H         -19.4520   -0.8460   38.6700 H       1  UNL1        0.0233
     18 H         -19.3870   -0.5880   35.4190 H       1  UNL1        0.0265
     19 H         -19.4760   -2.3030   35.0590 H       1  UNL1        0.0265
     20 H         -17.7250   -2.7720   36.7840 H       1  UNL1        0.0230
     21 H         -17.1710   -1.6190   35.5680 H       1  UNL1        0.0230
     22 H         -17.6430   -1.0400   37.1680 H       1  UNL1        0.0230
     23 C         -23.4380   -3.5850   44.0330 C.2     1  UNL1        0.2344
     24 N         -22.7450   -3.9630   41.7450 N.am    1  UNL1       -0.3002
     25 O         -22.2680   -3.3230   44.3060 O.2     1  UNL1       -0.2737
     26 F         -21.5900   -8.0130   46.1090 F       1  UNL1       -0.2054
     27 F         -20.7630   -8.7620   41.5370 F       1  UNL1       -0.2054
     28 C         -23.8530   -4.1630   42.6710 C.3     1  UNL1        0.1036
     29 C         -24.3020   -5.6320   42.7880 C.3     1  UNL1       -0.0005
     30 C         -23.2080   -6.6080   43.1630 C.ar    1  UNL1       -0.0397
     31 C         -21.1510   -8.4120   43.8330 C.ar    1  UNL1        0.0088
     32 C         -22.9000   -6.8740   44.5060 C.ar    1  UNL1       -0.0230
     33 C         -22.4720   -7.2600   42.1620 C.ar    1  UNL1       -0.0230
     34 C         -21.8780   -7.7680   44.8240 C.ar    1  UNL1        0.1264
     35 C         -21.4570   -8.1500   42.5060 C.ar    1  UNL1        0.1264
     36 H         -21.8380   -3.7860   42.1690 H       1  UNL1        0.1498
     37 H         -24.7000   -3.5670   42.3070 H       1  UNL1        0.0598
     38 H         -25.1150   -5.7210   43.5200 H       1  UNL1        0.0336
     39 H         -24.7380   -5.9530   41.8330 H       1  UNL1        0.0336
     40 H         -20.3610   -9.1050   44.0910 H       1  UNL1        0.0675
     41 H         -23.4420   -6.3960   45.3200 H       1  UNL1        0.0649
     42 H         -22.6800   -7.0810   41.1100 H       1  UNL1        0.0649
     43 N         -24.4690   -3.3870   44.9150 N.am    1  UNL1       -0.2995
     44 C         -24.2640   -2.9170   46.2890 C.3     1  UNL1        0.1366
     45 C         -25.5780   -3.2440   47.0330 C.2     1  UNL1        0.2402
     46 O         -26.6590   -3.1270   46.4400 O.2     1  UNL1       -0.2734
     47 C         -23.8970   -1.4160   46.3700 C.3     1  UNL1        0.1270
     48 O         -23.8160   -1.0240   47.7590 O.3     1  UNL1       -0.4580
     49 C         -24.9050   -0.4950   45.6860 C.3     1  UNL1       -0.0254
     50 H         -25.4320   -3.5680   44.6410 H       1  UNL1        0.1496
     51 H         -23.4500   -3.5100   46.7110 H       1  UNL1        0.0632
     52 H         -22.9220   -1.2810   45.8860 H       1  UNL1        0.0755
     53 H         -25.8790   -0.5290   46.1840 H       1  UNL1        0.0266
     54 H         -24.5680    0.5460   45.7460 H       1  UNL1        0.0266
     55 H         -25.0370   -0.7460   44.6290 H       1  UNL1        0.0266
     56 N         -25.5320   -3.6880   48.3360 N.am    1  UNL1       -0.2883
     57 C         -24.3590   -3.8260   49.2070 C.3     1  UNL1        0.1025
     58 C         -23.4680   -5.0350   48.8490 C.2     1  UNL1        0.2367
     59 O         -23.9350   -5.9720   48.1950 O.2     1  UNL1       -0.2735
     60 C         -24.9600   -4.0040   50.6040 C.3     1  UNL1       -0.0243
     61 C         -26.2830   -4.7080   50.3260 C.3     1  UNL1       -0.0350
     62 C         -26.7510   -4.0650   49.0300 C.3     1  UNL1        0.0156
     63 H         -23.7740   -2.9140   49.1410 H       1  UNL1        0.0597
     64 H         -24.3290   -4.5740   51.2920 H       1  UNL1        0.0288
     65 H         -25.1560   -3.0220   51.0510 H       1  UNL1        0.0288
     66 H         -26.1110   -5.7800   50.1740 H       1  UNL1        0.0281
     67 H         -27.0070   -4.5920   51.1370 H       1  UNL1        0.0281
     68 H         -27.3570   -4.7390   48.4170 H       1  UNL1        0.0465
     69 H         -27.3240   -3.1510   49.2220 H       1  UNL1        0.0465
     70 N         -22.1480   -5.0300   49.3080 N.am    1  UNL1       -0.2884
     71 O         -21.0440   -3.1070   47.7060 O.2     1  UNL1       -0.2738
     72 C         -21.4890   -3.8720   49.9790 C.3     1  UNL1        0.1025
     73 C         -20.9720   -2.8610   48.9120 C.2     1  UNL1        0.2342
     74 C         -20.4370   -4.3660   50.9770 C.3     1  UNL1       -0.0231
     75 C         -19.4340   -5.3280   50.3370 C.3     1  UNL1       -0.0403
     76 C         -18.3940   -5.7860   51.3570 C.3     1  UNL1       -0.0623
     77 C         -20.1960   -6.5230   49.7640 C.3     1  UNL1       -0.0345
     78 C         -21.2660   -6.0770   48.7760 C.3     1  UNL1        0.0158
     79 H         -22.2450   -3.3320   50.5570 H       1  UNL1        0.0597
     80 H         -20.9570   -4.8890   51.7920 H       1  UNL1        0.0290
     81 H         -19.9110   -3.5380   51.4520 H       1  UNL1        0.0290
     82 H         -18.9060   -4.8130   49.5230 H       1  UNL1        0.0299
     83 H         -18.8620   -6.3060   52.2000 H       1  UNL1        0.0232
     84 H         -17.6730   -6.4690   50.8960 H       1  UNL1        0.0232
     85 H         -17.8380   -4.9300   51.7550 H       1  UNL1        0.0232
     86 H         -20.6730   -7.0830   50.5800 H       1  UNL1        0.0283
     87 H         -19.5050   -7.2130   49.2660 H       1  UNL1        0.0283
     88 H         -21.8500   -6.9530   48.4740 H       1  UNL1        0.0465
     89 H         -20.7990   -5.6830   47.8660 H       1  UNL1        0.0465
     90 N         -20.5390   -1.6120   49.2410 N.am    1  UNL1       -0.3027
     91 C         -20.2610   -0.9890   50.5320 C.3     1  UNL1        0.0968
     92 C         -20.6260    0.5250   50.5860 C.2     1  UNL1        0.2363
     93 O         -19.8810    1.3220   51.1680 O.2     1  UNL1       -0.2736
     94 C         -18.7690   -1.1480   50.8460 C.3     1  UNL1       -0.0381
     95 H         -20.2810   -1.0680   48.4170 H       1  UNL1        0.1495
     96 H         -20.8580   -1.4890   51.3000 H       1  UNL1        0.0592
     97 H         -18.4240   -2.1780   50.7160 H       1  UNL1        0.0252
     98 H         -18.5510   -0.8430   51.8750 H       1  UNL1        0.0252
     99 H         -18.1600   -0.5260   50.1790 H       1  UNL1        0.0252
    100 N         -21.8630    0.9480   50.1500 N.am    1  UNL1       -0.2865
    101 C         -22.9790    0.1630   49.6180 C.3     1  UNL1        0.1230
    102 C         -22.8700   -0.1070   48.1080 C.2     1  UNL1        0.3282
    103 O         -22.0670    0.4180   47.3500 O.2     1  UNL1       -0.2487
    104 C         -24.1970    1.0480   49.8890 C.3     1  UNL1       -0.0225
    105 C         -23.6370    2.4550   49.7090 C.3     1  UNL1       -0.0349
    106 C         -22.2400    2.3470   50.3010 C.3     1  UNL1        0.0157
    107 H         -23.0350   -0.7930   50.1470 H       1  UNL1        0.0616
    108 H         -25.0470    0.8570   49.2280 H       1  UNL1        0.0289
    109 H         -24.5310    0.9170   50.9250 H       1  UNL1        0.0289
    110 H         -23.5770    2.7020   48.6430 H       1  UNL1        0.0281
    111 H         -24.2430    3.2220   50.2010 H       1  UNL1        0.0281
    112 H         -21.5160    2.9960   49.7980 H       1  UNL1        0.0465
    113 H         -22.2440    2.5860   51.3710 H       1  UNL1        0.0465
@<TRIPOS>BOND
     1    19     9    1
     2    18     9    1
     3    21    10    1
     4     9    10    1
     5     9     7    1
     6    10    20    1
     7    10    22    1
     8    14     7    1
     9    12     6    1
    10     7     6    1
    11     7     8    1
    12     6    13    1
    13     6     5    1
    14    15     8    1
    15    11     5    1
    16     8    16    1
    17     8    17    1
    18     5     4    2
    19     4     1    1
    20     4     3    1
    21     2     3    2
    22     3    24   am
    23    42    33    1
    24    27    35    1
    25    24    36    1
    26    24    28    1
    27    39    29    1
    28    33    35   ar
    29    33    30   ar
    30    37    28    1
    31    35    31   ar
    32    28    29    1
    33    28    23    1
    34    29    30    1
    35    29    38    1
    36    30    32   ar
    37    31    40    1
    38    31    34   ar
    39    23    25    2
    40    23    43   am
    41    32    34   ar
    42    32    41    1
    43    55    49    1
    44    50    43    1
    45    34    26    1
    46    43    44    1
    47    49    54    1
    48    49    53    1
    49    49    47    1
    50    52    47    1
    51    44    47    1
    52    44    51    1
    53    44    45    1
    54    47    48    1
    55    46    45    2
    56    45    56   am
    57   103   102    2
    58    71    73    2
    59    48   102    1
    60    89    78    1
    61   102   101    1
    62    59    58    2
    63    56    62    1
    64    56    57    1
    65    95    90    1
    66    68    62    1
    67    88    78    1
    68   110   105    1
    69    78    70    1
    70    78    77    1
    71    58    57    1
    72    58    70   am
    73    73    90   am
    74    73    72    1
    75    62    69    1
    76    62    61    1
    77    63    57    1
    78    57    60    1
    79   108   104    1
    80    90    91    1
    81    87    77    1
    82    70    72    1
    83    82    75    1
    84   101   104    1
    85   101   107    1
    86   101   100    1
    87   105   104    1
    88   105   111    1
    89   105   106    1
    90    77    75    1
    91    77    86    1
    92   112   106    1
    93   104   109    1
    94    72    79    1
    95    72    74    1
    96   100   106    1
    97   100    92   am
    98    66    61    1
    99    99    94    1
   100   106   113    1
   101    61    60    1
   102    61    67    1
   103    75    74    1
   104    75    76    1
   105    91    92    1
   106    91    94    1
   107    91    96    1
   108    92    93    2
   109    60    65    1
   110    60    64    1
   111    97    94    1
   112    94    98    1
   113    84    76    1
   114    74    81    1
   115    74    80    1
   116    76    85    1
   117    76    83    1
