@<TRIPOS>MOLECULE
121.70044
 113 117 0 0 0
SMALL
GASTEIGER

@<TRIPOS>ATOM
      1 H         -26.8030   -3.0440   52.9800 H       1  UNL1        0.0666
      2 O         -29.0610   -2.1950   50.7010 O.2     1  UNL1       -0.2708
      3 C         -28.5790   -2.7090   51.7040 C.2     1  UNL1        0.2372
      4 C         -27.1270   -2.7010   52.0050 C.2     1  UNL1       -0.0038
      5 C         -26.2430   -2.2960   51.0810 C.2     1  UNL1       -0.0789
      6 C         -24.7550   -2.2910   51.2980 C.3     1  UNL1       -0.0317
      7 C         -24.1070   -0.9070   51.0880 C.3     1  UNL1       -0.0407
      8 C         -24.6890    0.1380   52.0500 C.3     1  UNL1       -0.0621
      9 C         -22.5760   -0.9590   51.2730 C.3     1  UNL1       -0.0530
     10 C         -21.8610   -1.8420   50.2590 C.3     1  UNL1       -0.0650
     11 H         -26.5920   -1.9720   50.1010 H       1  UNL1        0.0574
     12 H         -24.3310   -3.0100   50.5870 H       1  UNL1        0.0310
     13 H         -24.5100   -2.6630   52.3010 H       1  UNL1        0.0310
     14 H         -24.3170   -0.5700   50.0640 H       1  UNL1        0.0301
     15 H         -24.1990    1.1080   51.9130 H       1  UNL1        0.0233
     16 H         -25.7590    0.2900   51.8770 H       1  UNL1        0.0233
     17 H         -24.5510   -0.1650   53.0940 H       1  UNL1        0.0233
     18 H         -22.3310   -1.3040   52.2850 H       1  UNL1        0.0265
     19 H         -22.1700    0.0560   51.1800 H       1  UNL1        0.0265
     20 H         -22.1290   -1.5640   49.2360 H       1  UNL1        0.0230
     21 H         -20.7770   -1.7320   50.3670 H       1  UNL1        0.0230
     22 H         -22.0980   -2.8990   50.4070 H       1  UNL1        0.0230
     23 C         -31.4870   -2.2480   52.8330 C.2     1  UNL1        0.2344
     24 N         -29.3250   -3.3420   52.6610 N.am    1  UNL1       -0.3002
     25 O         -31.8770   -1.9900   53.9680 O.2     1  UNL1       -0.2737
     26 F         -28.8050   -8.6590   54.7760 F       1  UNL1       -0.2054
     27 F         -30.3120   -8.4250   50.3220 F       1  UNL1       -0.2054
     28 C         -30.7590   -3.5560   52.4760 C.3     1  UNL1        0.1036
     29 C         -31.2940   -4.7000   53.3530 C.3     1  UNL1       -0.0005
     30 C         -30.6740   -6.0480   53.0580 C.ar    1  UNL1       -0.0397
     31 C         -29.5380   -8.5760   52.5390 C.ar    1  UNL1        0.0088
     32 C         -30.0050   -6.7550   54.0680 C.ar    1  UNL1       -0.0230
     33 C         -30.7760   -6.6330   51.7870 C.ar    1  UNL1       -0.0230
     34 C         -29.4450   -8.0030   53.7980 C.ar    1  UNL1        0.1264
     35 C         -30.2070   -7.8820   51.5420 C.ar    1  UNL1        0.1264
     36 H         -28.8920   -3.6890   53.5060 H       1  UNL1        0.1498
     37 H         -30.9390   -3.7750   51.4210 H       1  UNL1        0.0598
     38 H         -31.1360   -4.4560   54.4130 H       1  UNL1        0.0336
     39 H         -32.3810   -4.7890   53.2260 H       1  UNL1        0.0336
     40 H         -29.1010   -9.5460   52.3390 H       1  UNL1        0.0675
     41 H         -29.9160   -6.3530   55.0740 H       1  UNL1        0.0649
     42 H         -31.2930   -6.1330   50.9720 H       1  UNL1        0.0649
     43 N         -31.5880   -1.3540   51.7820 N.am    1  UNL1       -0.2995
     44 C         -32.0490    0.0180   52.0130 C.3     1  UNL1        0.1366
     45 C         -33.4980    0.1350   52.5440 C.2     1  UNL1        0.2402
     46 O         -33.7500    1.0380   53.3550 O.2     1  UNL1       -0.2734
     47 C         -31.9030    0.9070   50.7580 C.3     1  UNL1        0.1270
     48 O         -30.6600    0.5880   50.0810 O.3     1  UNL1       -0.4580
     49 C         -31.8370    2.3940   51.1020 C.3     1  UNL1       -0.0254
     50 H         -30.9390   -1.5130   51.0110 H       1  UNL1        0.1496
     51 H         -31.3890    0.4010   52.8030 H       1  UNL1        0.0632
     52 H         -32.7580    0.7580   50.0970 H       1  UNL1        0.0755
     53 H         -30.9970    2.6050   51.7720 H       1  UNL1        0.0266
     54 H         -31.6700    2.9850   50.1950 H       1  UNL1        0.0266
     55 H         -32.7600    2.7460   51.5720 H       1  UNL1        0.0266
     56 N         -34.5260   -0.6340   52.0370 N.am    1  UNL1       -0.2883
     57 C         -34.5330   -1.6600   50.9800 C.3     1  UNL1        0.1025
     58 C         -34.6970   -1.0660   49.5520 C.2     1  UNL1        0.2367
     59 O         -35.0770    0.1000   49.4090 O.2     1  UNL1       -0.2735
     60 C         -35.7760   -2.4920   51.3250 C.3     1  UNL1       -0.0243
     61 C         -36.7480   -1.4530   51.8670 C.3     1  UNL1       -0.0350
     62 C         -35.8470   -0.5010   52.6350 C.3     1  UNL1        0.0156
     63 H         -33.6290   -2.2620   51.0240 H       1  UNL1        0.0597
     64 H         -36.2040   -3.0390   50.4810 H       1  UNL1        0.0288
     65 H         -35.5320   -3.2140   52.1150 H       1  UNL1        0.0288
     66 H         -37.2360   -0.9260   51.0390 H       1  UNL1        0.0281
     67 H         -37.5300   -1.8890   52.4950 H       1  UNL1        0.0281
     68 H         -36.1930    0.5360   52.5770 H       1  UNL1        0.0465
     69 H         -35.7740   -0.7870   53.6900 H       1  UNL1        0.0465
     70 N         -34.4880   -1.9040   48.4480 N.am    1  UNL1       -0.2884
     71 O         -31.8140   -4.2780   49.1470 O.2     1  UNL1       -0.2738
     72 C         -33.9180   -3.2660   48.5390 C.3     1  UNL1        0.1025
     73 C         -32.3730   -3.3870   48.5060 C.2     1  UNL1        0.2342
     74 C         -34.5330   -4.2410   47.5210 C.3     1  UNL1       -0.0231
     75 C         -34.6400   -3.6530   46.1130 C.3     1  UNL1       -0.0403
     76 C         -35.3070   -4.6460   45.1620 C.3     1  UNL1       -0.0623
     77 C         -35.4330   -2.3490   46.1800 C.3     1  UNL1       -0.0345
     78 C         -34.7690   -1.3490   47.1180 C.3     1  UNL1        0.0158
     79 H         -34.1790   -3.6680   49.5230 H       1  UNL1        0.0597
     80 H         -35.5400   -4.5090   47.8700 H       1  UNL1        0.0290
     81 H         -33.9580   -5.1750   47.4910 H       1  UNL1        0.0290
     82 H         -33.6350   -3.4430   45.7280 H       1  UNL1        0.0299
     83 H         -36.3210   -4.8960   45.4910 H       1  UNL1        0.0232
     84 H         -35.3720   -4.2300   44.1510 H       1  UNL1        0.0232
     85 H         -34.7300   -5.5750   45.1050 H       1  UNL1        0.0232
     86 H         -36.4540   -2.5520   46.5310 H       1  UNL1        0.0283
     87 H         -35.5230   -1.9060   45.1810 H       1  UNL1        0.0283
     88 H         -35.4180   -0.4700   47.1980 H       1  UNL1        0.0465
     89 H         -33.8330   -0.9930   46.6820 H       1  UNL1        0.0465
     90 N         -31.7020   -2.6030   47.6070 N.am    1  UNL1       -0.3027
     91 C         -30.2840   -2.7730   47.2820 C.3     1  UNL1        0.0968
     92 C         -29.8620   -1.6710   46.2750 C.2     1  UNL1        0.2363
     93 O         -29.9630   -1.8510   45.0580 O.2     1  UNL1       -0.2736
     94 C         -30.0110   -4.1420   46.6520 C.3     1  UNL1       -0.0381
     95 H         -32.1450   -1.7440   47.2930 H       1  UNL1        0.1495
     96 H         -29.7060   -2.6960   48.2040 H       1  UNL1        0.0592
     97 H         -30.1710   -4.9550   47.3670 H       1  UNL1        0.0252
     98 H         -28.9750   -4.2090   46.3020 H       1  UNL1        0.0252
     99 H         -30.6680   -4.3250   45.7940 H       1  UNL1        0.0252
    100 N         -29.4810   -0.4400   46.7670 N.am    1  UNL1       -0.2865
    101 C         -29.3680   -0.0200   48.1700 C.3     1  UNL1        0.1230
    102 C         -30.7560    0.2480   48.7660 C.2     1  UNL1        0.3282
    103 O         -31.8070    0.1350   48.1450 O.2     1  UNL1       -0.2487
    104 C         -28.5500    1.2700   48.0950 C.3     1  UNL1       -0.0225
    105 C         -28.9580    1.8620   46.7490 C.3     1  UNL1       -0.0349
    106 C         -29.1050    0.6350   45.8630 C.3     1  UNL1        0.0157
    107 H         -28.8630   -0.7920   48.7470 H       1  UNL1        0.0616
    108 H         -28.7300    1.9650   48.9210 H       1  UNL1        0.0289
    109 H         -27.4800    1.0300   48.0770 H       1  UNL1        0.0289
    110 H         -29.9220    2.3750   46.8450 H       1  UNL1        0.0281
    111 H         -28.2290    2.5770   46.3590 H       1  UNL1        0.0281
    112 H         -29.8580    0.7680   45.0790 H       1  UNL1        0.0465
    113 H         -28.1530    0.3630   45.3950 H       1  UNL1        0.0465
@<TRIPOS>BOND
     1    84    76    1
     2    93    92    2
     3   112   106    1
     4    85    76    1
     5    76    83    1
     6    76    75    1
     7    87    77    1
     8   113   106    1
     9    82    75    1
    10    99    94    1
    11   106   105    1
    12   106   100    1
    13    75    77    1
    14    75    74    1
    15    77    86    1
    16    77    78    1
    17    92   100   am
    18    92    91    1
    19    98    94    1
    20   111   105    1
    21    94    91    1
    22    94    97    1
    23    89    78    1
    24   105   110    1
    25   105   104    1
    26   100   101    1
    27    78    88    1
    28    78    70    1
    29    91    90    1
    30    91    96    1
    31    95    90    1
    32    81    74    1
    33    74    80    1
    34    74    72    1
    35    90    73   am
    36   109   104    1
    37   104   101    1
    38   104   108    1
    39   103   102    2
    40   101   107    1
    41   101   102    1
    42    70    72    1
    43    70    58   am
    44    73    72    1
    45    73    71    2
    46    72    79    1
    47   102    48    1
    48    20    10    1
    49    59    58    2
    50    58    57    1
    51    14     7    1
    52    48    47    1
    53    52    47    1
    54    11     5    1
    55    54    49    1
    56    10    21    1
    57    10    22    1
    58    10     9    1
    59    27    35    1
    60    64    60    1
    61    12     6    1
    62     2     3    2
    63    47    49    1
    64    47    44    1
    65    42    33    1
    66    57    63    1
    67    57    60    1
    68    57    56    1
    69    50    43    1
    70    66    61    1
    71     5     6    1
    72     5     4    2
    73     7     9    1
    74     7     6    1
    75     7     8    1
    76    49    55    1
    77    49    53    1
    78    19     9    1
    79     9    18    1
    80     6    13    1
    81    60    61    1
    82    60    65    1
    83    37    28    1
    84    35    33   ar
    85    35    31   ar
    86     3     4    1
    87     3    24   am
    88    43    44    1
    89    43    23   am
    90    33    30   ar
    91    61    67    1
    92    61    62    1
    93    16     8    1
    94    15     8    1
    95     4     1    1
    96    44    45    1
    97    44    51    1
    98    56    45   am
    99    56    62    1
   100     8    17    1
   101    40    31    1
   102    28    24    1
   103    28    23    1
   104    28    29    1
   105    31    34   ar
   106    45    46    2
   107    68    62    1
   108    62    69    1
   109    24    36    1
   110    23    25    2
   111    30    29    1
   112    30    32   ar
   113    39    29    1
   114    29    38    1
   115    34    32   ar
   116    34    26    1
   117    32    41    1
