@<TRIPOS>MOLECULE
146.15628
 113 117 0 0 0
SMALL
GASTEIGER

@<TRIPOS>ATOM
      1 H         -23.8760   -0.1550   59.4860 H       1  UNL1        0.0666
      2 O         -26.5520    1.6750   58.7800 O.2     1  UNL1       -0.2708
      3 C         -25.4720    1.1200   58.6400 C.2     1  UNL1        0.2372
      4 C         -24.8830    0.2080   59.6510 C.2     1  UNL1       -0.0038
      5 C         -25.5950   -0.1810   60.7200 C.2     1  UNL1       -0.0789
      6 C         -25.0780   -1.1360   61.7590 C.3     1  UNL1       -0.0317
      7 C         -25.8940   -2.4440   61.8420 C.3     1  UNL1       -0.0407
      8 C         -25.8970   -3.1940   60.5020 C.3     1  UNL1       -0.0621
      9 C         -25.3550   -3.3870   62.9380 C.3     1  UNL1       -0.0530
     10 C         -25.4570   -2.8190   64.3460 C.3     1  UNL1       -0.0650
     11 H         -26.6080    0.1950   60.8600 H       1  UNL1        0.0574
     12 H         -25.1140   -0.6110   62.7210 H       1  UNL1        0.0310
     13 H         -24.0230   -1.3740   61.5730 H       1  UNL1        0.0310
     14 H         -26.9360   -2.1950   62.0860 H       1  UNL1        0.0301
     15 H         -26.4480   -4.1370   60.5850 H       1  UNL1        0.0233
     16 H         -26.3810   -2.6080   59.7150 H       1  UNL1        0.0233
     17 H         -24.8770   -3.4270   60.1770 H       1  UNL1        0.0233
     18 H         -24.3090   -3.6460   62.7300 H       1  UNL1        0.0265
     19 H         -25.9210   -4.3260   62.9120 H       1  UNL1        0.0265
     20 H         -26.4790   -2.4960   64.5670 H       1  UNL1        0.0230
     21 H         -25.1770   -3.5830   65.0780 H       1  UNL1        0.0230
     22 H         -24.7840   -1.9690   64.4880 H       1  UNL1        0.0230
     23 C         -24.3300    1.4340   55.1640 C.2     1  UNL1        0.2344
     24 N         -24.6850    1.2480   57.5310 N.am    1  UNL1       -0.3002
     25 O         -23.2670    0.8280   55.3020 O.2     1  UNL1       -0.2737
     26 F         -20.3960    4.8640   54.9450 F       1  UNL1       -0.2054
     27 F         -21.1150    4.3140   59.5630 F       1  UNL1       -0.2054
     28 C         -25.0930    2.0170   56.3610 C.3     1  UNL1        0.1036
     29 C         -24.8470    3.5290   56.5000 C.3     1  UNL1       -0.0005
     30 C         -23.4080    3.9200   56.7620 C.ar    1  UNL1       -0.0397
     31 C         -20.7180    4.5950   57.2600 C.ar    1  UNL1        0.0088
     32 C         -22.5400    4.2310   55.7030 C.ar    1  UNL1       -0.0230
     33 C         -22.9090    3.9580   58.0720 C.ar    1  UNL1       -0.0230
     34 C         -21.2120    4.5640   55.9640 C.ar    1  UNL1        0.1264
     35 C         -21.5760    4.2910   58.3050 C.ar    1  UNL1        0.1264
     36 H         -23.7960    0.7640   57.4550 H       1  UNL1        0.1498
     37 H         -26.1650    1.8440   56.2010 H       1  UNL1        0.0598
     38 H         -25.1900    4.0440   55.5930 H       1  UNL1        0.0336
     39 H         -25.4660    3.9270   57.3150 H       1  UNL1        0.0336
     40 H         -19.6830    4.8520   57.4490 H       1  UNL1        0.0675
     41 H         -22.8770    4.2120   54.6700 H       1  UNL1        0.0649
     42 H         -23.5480    3.7260   58.9200 H       1  UNL1        0.0649
     43 N         -24.9040    1.6460   53.9360 N.am    1  UNL1       -0.2995
     44 C         -24.2200    1.3040   52.6820 C.3     1  UNL1        0.1366
     45 C         -24.5710    2.4600   51.7170 C.2     1  UNL1        0.2402
     46 O         -25.5480    3.1820   51.9660 O.2     1  UNL1       -0.2734
     47 C         -24.5370   -0.1260   52.1660 C.3     1  UNL1        0.1270
     48 O         -25.8260   -0.2750   51.5320 O.3     1  UNL1       -0.4580
     49 C         -24.4700   -1.1890   53.2640 C.3     1  UNL1       -0.0254
     50 H         -25.7490    2.2050   53.8410 H       1  UNL1        0.1496
     51 H         -23.1450    1.3600   52.8880 H       1  UNL1        0.0632
     52 H         -23.7700   -0.3920   51.4420 H       1  UNL1        0.0755
     53 H         -25.2480   -1.0360   54.0190 H       1  UNL1        0.0266
     54 H         -24.6530   -2.1850   52.8530 H       1  UNL1        0.0266
     55 H         -23.4890   -1.2040   53.7460 H       1  UNL1        0.0266
     56 N         -23.7770    2.7010   50.6190 N.am    1  UNL1       -0.2883
     57 C         -22.7000    1.8770   50.0670 C.3     1  UNL1        0.1025
     58 C         -21.3780    1.9800   50.8530 C.2     1  UNL1        0.2367
     59 O         -21.1840    2.9410   51.6010 O.2     1  UNL1       -0.2735
     60 C         -22.5130    2.4080   48.6420 C.3     1  UNL1       -0.0243
     61 C         -22.9150    3.8730   48.7620 C.3     1  UNL1       -0.0350
     62 C         -24.0680    3.8300   49.7500 C.3     1  UNL1        0.0156
     63 H         -23.0390    0.8470   50.0470 H       1  UNL1        0.0597
     64 H         -21.4990    2.2900   48.2500 H       1  UNL1        0.0288
     65 H         -23.2050    1.8960   47.9620 H       1  UNL1        0.0288
     66 H         -22.0830    4.4550   49.1770 H       1  UNL1        0.0281
     67 H         -23.1980    4.3180   47.8040 H       1  UNL1        0.0281
     68 H         -24.1650    4.7530   50.3300 H       1  UNL1        0.0465
     69 H         -25.0190    3.6320   49.2430 H       1  UNL1        0.0465
     70 N         -20.4100    0.9980   50.6410 N.am    1  UNL1       -0.2884
     71 O         -20.3090   -1.6170   51.9810 O.2     1  UNL1       -0.2738
     72 C         -20.6280   -0.2990   49.9500 C.3     1  UNL1        0.1025
     73 C         -20.9560   -1.4410   50.9480 C.2     1  UNL1        0.2342
     74 C         -19.4130   -0.6930   49.0930 C.3     1  UNL1       -0.0231
     75 C         -18.0800   -0.5780   49.8470 C.3     1  UNL1       -0.0403
     76 C         -16.9050   -0.8820   48.9200 C.3     1  UNL1       -0.0623
     77 C         -17.9440    0.8200   50.4540 C.3     1  UNL1       -0.0345
     78 C         -19.1320    1.1570   51.3470 C.3     1  UNL1        0.0158
     79 H         -21.4680   -0.1950   49.2640 H       1  UNL1        0.0597
     80 H         -19.3820   -0.0320   48.2160 H       1  UNL1        0.0290
     81 H         -19.5310   -1.7160   48.7160 H       1  UNL1        0.0290
     82 H         -18.0610   -1.3170   50.6570 H       1  UNL1        0.0299
     83 H         -16.8610   -0.1740   48.0840 H       1  UNL1        0.0232
     84 H         -15.9570   -0.8210   49.4640 H       1  UNL1        0.0232
     85 H         -16.9890   -1.8920   48.5050 H       1  UNL1        0.0232
     86 H         -17.8740    1.5660   49.6520 H       1  UNL1        0.0283
     87 H         -17.0190    0.8900   51.0390 H       1  UNL1        0.0283
     88 H         -19.0120    2.1840   51.7070 H       1  UNL1        0.0465
     89 H         -19.1470    0.5190   52.2360 H       1  UNL1        0.0465
     90 N         -21.9600   -2.3240   50.6960 N.am    1  UNL1       -0.3027
     91 C         -22.9970   -2.3860   49.6640 C.3     1  UNL1        0.0968
     92 C         -24.1510   -3.2170   50.2800 C.2     1  UNL1        0.2363
     93 O         -23.8940   -4.2680   50.8750 O.2     1  UNL1       -0.2736
     94 C         -22.4960   -3.0700   48.4030 C.3     1  UNL1       -0.0381
     95 H         -22.0080   -3.0600   51.4010 H       1  UNL1        0.1495
     96 H         -23.3150   -1.3710   49.4330 H       1  UNL1        0.0592
     97 H         -21.6870   -2.4980   47.9390 H       1  UNL1        0.0252
     98 H         -23.3030   -3.1730   47.6700 H       1  UNL1        0.0252
     99 H         -22.1120   -4.0730   48.6180 H       1  UNL1        0.0252
    100 N         -25.4430   -2.7490   50.1880 N.am    1  UNL1       -0.2865
    101 C         -25.9300   -1.5770   49.4610 C.3     1  UNL1        0.1230
    102 C         -25.8130   -0.2210   50.1740 C.2     1  UNL1        0.3282
    103 O         -25.8350    0.8330   49.5500 O.2     1  UNL1       -0.2487
    104 C         -27.4080   -1.8930   49.2170 C.3     1  UNL1       -0.0225
    105 C         -27.7930   -2.7110   50.4460 C.3     1  UNL1       -0.0349
    106 C         -26.5470   -3.5400   50.7120 C.3     1  UNL1        0.0157
    107 H         -25.3810   -1.4940   48.5160 H       1  UNL1        0.0616
    108 H         -28.0390   -1.0080   49.0950 H       1  UNL1        0.0289
    109 H         -27.5120   -2.5160   48.3190 H       1  UNL1        0.0289
    110 H         -27.9920   -2.0440   51.2930 H       1  UNL1        0.0281
    111 H         -28.6810   -3.3280   50.2850 H       1  UNL1        0.0281
    112 H         -26.3980   -3.7540   51.7750 H       1  UNL1        0.0465
    113 H         -26.5750   -4.4890   50.1640 H       1  UNL1        0.0465
@<TRIPOS>BOND
     1    98    94    1
     2    67    61    1
     3    97    94    1
     4    65    60    1
     5    83    76    1
     6    80    74    1
     7    64    60    1
     8   109   104    1
     9    94    99    1
    10    94    91    1
    11    85    76    1
    12   107   101    1
    13    60    61    1
    14    60    57    1
    15    81    74    1
    16    61    66    1
    17    61    62    1
    18    76    84    1
    19    76    75    1
    20    74    75    1
    21    74    72    1
    22   108   104    1
    23   104   101    1
    24   104   105    1
    25    69    62    1
    26    79    72    1
    27    96    91    1
    28   101   102    1
    29   101   100    1
    30   103   102    2
    31    86    77    1
    32    91    92    1
    33    91    90    1
    34    62    68    1
    35    62    56    1
    36    75    77    1
    37    75    82    1
    38    72    70    1
    39    72    73    1
    40    63    57    1
    41    57    56    1
    42    57    58    1
    43   113   106    1
    44   102    48    1
    45   100    92   am
    46   100   106    1
    47    92    93    2
    48   111   105    1
    49   105   106    1
    50   105   110    1
    51    77    87    1
    52    77    78    1
    53    56    45   am
    54    70    58   am
    55    70    78    1
    56    90    73   am
    57    90    95    1
    58   106   112    1
    59    58    59    2
    60    73    71    2
    61    78    88    1
    62    78    89    1
    63    52    47    1
    64    48    47    1
    65    45    46    2
    66    45    44    1
    67    47    44    1
    68    47    49    1
    69    44    51    1
    70    44    43    1
    71    54    49    1
    72    49    55    1
    73    49    53    1
    74    50    43    1
    75    43    23   am
    76    41    32    1
    77    26    34    1
    78    23    25    2
    79    23    28    1
    80    38    29    1
    81    32    34   ar
    82    32    30   ar
    83    34    31   ar
    84    37    28    1
    85    28    29    1
    86    28    24    1
    87    29    30    1
    88    29    39    1
    89    30    33   ar
    90    31    40    1
    91    31    35   ar
    92    36    24    1
    93    24     3   am
    94    33    35   ar
    95    33    42    1
    96    35    27    1
    97     3     2    2
    98     3     4    1
    99     1     4    1
   100     4     5    2
   101    16     8    1
   102    17     8    1
   103     8    15    1
   104     8     7    1
   105     5    11    1
   106     5     6    1
   107    13     6    1
   108     6     7    1
   109     6    12    1
   110     7    14    1
   111     7     9    1
   112    18     9    1
   113    19     9    1
   114     9    10    1
   115    10    22    1
   116    10    20    1
   117    10    21    1
