@<TRIPOS>MOLECULE
121.31489
 113 117 0 0 0
SMALL
GASTEIGER

@<TRIPOS>ATOM
      1 H         -31.1870   -3.1000   48.6660 H       1  UNL1        0.0666
      2 O         -30.5610   -4.0580   51.7860 O.2     1  UNL1       -0.2708
      3 C         -30.5570   -4.0540   50.5610 C.2     1  UNL1        0.2372
      4 C         -31.2720   -3.0440   49.7440 C.2     1  UNL1       -0.0038
      5 C         -31.9870   -2.0730   50.3320 C.2     1  UNL1       -0.0789
      6 C         -32.7200   -1.0040   49.5710 C.3     1  UNL1       -0.0317
      7 C         -32.2320    0.4230   49.8980 C.3     1  UNL1       -0.0407
      8 C         -30.7380    0.5950   49.5820 C.3     1  UNL1       -0.0621
      9 C         -33.0320    1.4920   49.1230 C.3     1  UNL1       -0.0530
     10 C         -34.5130    1.5270   49.4720 C.3     1  UNL1       -0.0650
     11 H         -32.0570   -2.0340   51.4190 H       1  UNL1        0.0574
     12 H         -33.7810   -1.1030   49.8270 H       1  UNL1        0.0310
     13 H         -32.6430   -1.1790   48.4900 H       1  UNL1        0.0310
     14 H         -32.3680    0.6050   50.9720 H       1  UNL1        0.0301
     15 H         -30.4140    1.6210   49.7850 H       1  UNL1        0.0233
     16 H         -30.1190   -0.0650   50.1990 H       1  UNL1        0.0233
     17 H         -30.5280    0.3760   48.5300 H       1  UNL1        0.0233
     18 H         -32.9220    1.3340   48.0430 H       1  UNL1        0.0265
     19 H         -32.6110    2.4810   49.3420 H       1  UNL1        0.0265
     20 H         -34.6620    1.6220   50.5520 H       1  UNL1        0.0230
     21 H         -34.9910    2.3850   48.9880 H       1  UNL1        0.0230
     22 H         -35.0310    0.6280   49.1260 H       1  UNL1        0.0230
     23 C         -27.6700   -5.2650   50.7190 C.2     1  UNL1        0.2344
     24 N         -29.8610   -4.9590   49.8010 N.am    1  UNL1       -0.3002
     25 O         -26.7280   -5.2640   49.9250 O.2     1  UNL1       -0.2737
     26 F         -32.2000   -8.7690   46.4220 F       1  UNL1       -0.2054
     27 F         -32.4560  -10.0760   50.9380 F       1  UNL1       -0.2054
     28 C         -29.0080   -5.9650   50.4310 C.3     1  UNL1        0.1036
     29 C         -28.7710   -7.1820   49.5240 C.3     1  UNL1       -0.0005
     30 C         -30.0270   -7.9700   49.2300 C.ar    1  UNL1       -0.0397
     31 C         -32.3650   -9.4410   48.6730 C.ar    1  UNL1        0.0088
     32 C         -30.5540   -8.0120   47.9310 C.ar    1  UNL1       -0.0230
     33 C         -30.6840   -8.6810   50.2440 C.ar    1  UNL1       -0.0230
     34 C         -31.7120   -8.7420   47.6690 C.ar    1  UNL1        0.1264
     35 C         -31.8410   -9.4030   49.9560 C.ar    1  UNL1        0.1264
     36 H         -29.7970   -4.8320   48.8000 H       1  UNL1        0.1498
     37 H         -29.4560   -6.2760   51.3820 H       1  UNL1        0.0598
     38 H         -28.3150   -6.8620   48.5770 H       1  UNL1        0.0336
     39 H         -28.0410   -7.8580   49.9890 H       1  UNL1        0.0336
     40 H         -33.2640  -10.0060   48.4590 H       1  UNL1        0.0675
     41 H         -30.0750   -7.4850   47.1110 H       1  UNL1        0.0649
     42 H         -30.3080   -8.6850   51.2650 H       1  UNL1        0.0649
     43 N         -27.6660   -4.5150   51.8730 N.am    1  UNL1       -0.2995
     44 C         -26.4970   -3.7610   52.3020 C.3     1  UNL1        0.1366
     45 C         -25.9420   -4.4280   53.5730 C.2     1  UNL1        0.2402
     46 O         -26.6480   -4.5600   54.5770 O.2     1  UNL1       -0.2734
     47 C         -26.7920   -2.2480   52.4350 C.3     1  UNL1        0.1270
     48 O         -25.9220   -1.5500   51.5000 O.3     1  UNL1       -0.4580
     49 C         -26.5120   -1.6230   53.7970 C.3     1  UNL1       -0.0254
     50 H         -28.5100   -4.4830   52.4460 H       1  UNL1        0.1496
     51 H         -25.7640   -3.8690   51.5050 H       1  UNL1        0.0632
     52 H         -27.8370   -2.0270   52.1820 H       1  UNL1        0.0755
     53 H         -25.4670   -1.7630   54.0950 H       1  UNL1        0.0266
     54 H         -26.6750   -0.5400   53.7540 H       1  UNL1        0.0266
     55 H         -27.1690   -2.0300   54.5720 H       1  UNL1        0.0266
     56 N         -24.6430   -4.8950   53.5390 N.am    1  UNL1       -0.2883
     57 C         -23.7150   -4.8790   52.4020 C.3     1  UNL1        0.1025
     58 C         -24.0740   -5.9740   51.3580 C.2     1  UNL1        0.2367
     59 O         -24.7030   -6.9770   51.7100 O.2     1  UNL1       -0.2735
     60 C         -22.3590   -5.1840   53.0400 C.3     1  UNL1       -0.0243
     61 C         -22.7210   -6.0890   54.2150 C.3     1  UNL1       -0.0350
     62 C         -24.0450   -5.5210   54.7050 C.3     1  UNL1        0.0156
     63 H         -23.7360   -3.8850   51.9530 H       1  UNL1        0.0597
     64 H         -21.6450   -5.6590   52.3610 H       1  UNL1        0.0288
     65 H         -21.9100   -4.2580   53.4190 H       1  UNL1        0.0288
     66 H         -22.8590   -7.1180   53.8650 H       1  UNL1        0.0281
     67 H         -21.9550   -6.0990   54.9960 H       1  UNL1        0.0281
     68 H         -24.7060   -6.2880   55.1200 H       1  UNL1        0.0465
     69 H         -23.8910   -4.7430   55.4600 H       1  UNL1        0.0465
     70 N         -23.6270   -5.8220   50.0480 N.am    1  UNL1       -0.2884
     71 O         -22.7840   -3.1400   47.6780 O.2     1  UNL1       -0.2738
     72 C         -22.7890   -4.7220   49.5300 C.3     1  UNL1        0.1025
     73 C         -23.4520   -3.8530   48.4250 C.2     1  UNL1        0.2342
     74 C         -21.4480   -5.2990   49.0370 C.3     1  UNL1       -0.0231
     75 C         -21.6510   -6.4410   48.0240 C.3     1  UNL1       -0.0403
     76 C         -20.3110   -7.0500   47.6160 C.3     1  UNL1       -0.0623
     77 C         -22.5810   -7.5150   48.6070 C.3     1  UNL1       -0.0345
     78 C         -23.8920   -6.9020   49.0920 C.3     1  UNL1        0.0158
     79 H         -22.5580   -4.0180   50.3310 H       1  UNL1        0.0597
     80 H         -20.8920   -5.6850   49.9020 H       1  UNL1        0.0290
     81 H         -20.8280   -4.5130   48.5910 H       1  UNL1        0.0290
     82 H         -22.1210   -6.0300   47.1200 H       1  UNL1        0.0299
     83 H         -19.7910   -7.4810   48.4780 H       1  UNL1        0.0232
     84 H         -20.4560   -7.8430   46.8750 H       1  UNL1        0.0232
     85 H         -19.6590   -6.2900   47.1720 H       1  UNL1        0.0232
     86 H         -22.0840   -8.0170   49.4480 H       1  UNL1        0.0283
     87 H         -22.7920   -8.2820   47.8520 H       1  UNL1        0.0283
     88 H         -24.5180   -7.6850   49.5320 H       1  UNL1        0.0465
     89 H         -24.4510   -6.4890   48.2460 H       1  UNL1        0.0465
     90 N         -24.8310   -3.7970   48.4210 N.am    1  UNL1       -0.3027
     91 C         -25.5280   -3.2870   47.2400 C.3     1  UNL1        0.0968
     92 C         -25.6150   -1.7660   46.9300 C.2     1  UNL1        0.2363
     93 O         -25.8720   -1.4300   45.7630 O.2     1  UNL1       -0.2736
     94 C         -26.9390   -3.8740   47.1520 C.3     1  UNL1       -0.0381
     95 H         -25.3550   -4.4110   49.0520 H       1  UNL1        0.1495
     96 H         -24.9680   -3.6980   46.3860 H       1  UNL1        0.0592
     97 H         -26.9080   -4.9680   47.1810 H       1  UNL1        0.0252
     98 H         -27.4350   -3.5800   46.2200 H       1  UNL1        0.0252
     99 H         -27.5700   -3.5350   47.9760 H       1  UNL1        0.0252
    100 N         -25.6030   -0.8040   47.9130 N.am    1  UNL1       -0.2865
    101 C         -25.2320   -0.9160   49.3250 C.3     1  UNL1        0.1230
    102 C         -26.3540   -1.4830   50.2030 C.2     1  UNL1        0.3282
    103 O         -27.4450   -1.8700   49.8120 O.2     1  UNL1       -0.2487
    104 C         -24.9130    0.5290   49.7320 C.3     1  UNL1       -0.0225
    105 C         -25.8520    1.3470   48.8580 C.3     1  UNL1       -0.0349
    106 C         -25.8270    0.5860   47.5450 C.3     1  UNL1        0.0157
    107 H         -24.3500   -1.5480   49.4360 H       1  UNL1        0.0616
    108 H         -25.0520    0.7430   50.7960 H       1  UNL1        0.0289
    109 H         -23.8730    0.7650   49.4720 H       1  UNL1        0.0289
    110 H         -26.8630    1.3390   49.2830 H       1  UNL1        0.0281
    111 H         -25.5350    2.3880   48.7470 H       1  UNL1        0.0281
    112 H         -26.7580    0.6940   46.9790 H       1  UNL1        0.0465
    113 H         -24.9910    0.9090   46.9130 H       1  UNL1        0.0465
@<TRIPOS>BOND
     1    93    92    2
     2    98    94    1
     3    96    91    1
     4    26    34    1
     5    84    76    1
     6   113   106    1
     7    92    91    1
     8    92   100   am
     9   112   106    1
    10    41    32    1
    11    82    75    1
    12    94    97    1
    13    94    91    1
    14    94    99    1
    15    85    76    1
    16    91    90    1
    17   106   100    1
    18   106   105    1
    19    76    75    1
    20    76    83    1
    21    34    32   ar
    22    34    31   ar
    23    71    73    2
    24    87    77    1
    25   100   101    1
    26    32    30   ar
    27    75    77    1
    28    75    74    1
    29    18     9    1
    30    89    78    1
    31    90    73   am
    32    90    95    1
    33    73    72    1
    34    40    31    1
    35    13     6    1
    36    17     8    1
    37    38    29    1
    38    81    74    1
    39    77    78    1
    40    77    86    1
    41     1     4    1
    42    31    35   ar
    43   111   105    1
    44    36    24    1
    45   105   110    1
    46   105   104    1
    47    21    10    1
    48    74    72    1
    49    74    80    1
    50    78    88    1
    51    78    70    1
    52     9    19    1
    53     9    10    1
    54     9     7    1
    55    22    10    1
    56    30    29    1
    57    30    33   ar
    58   101   107    1
    59   101   104    1
    60   101   102    1
    61    10    20    1
    62   109   104    1
    63    29    39    1
    64    29    28    1
    65    72    70    1
    66    72    79    1
    67     6    12    1
    68     6     7    1
    69     6     5    1
    70     8    15    1
    71     8     7    1
    72     8    16    1
    73   104   108    1
    74     4     5    2
    75     4     3    1
    76    24    28    1
    77    24     3   am
    78   103   102    2
    79     7    14    1
    80    25    23    2
    81    35    33   ar
    82    35    27    1
    83    70    58   am
    84   102    48    1
    85    33    42    1
    86     5    11    1
    87    28    23    1
    88    28    37    1
    89     3     2    2
    90    23    43   am
    91    58    59    2
    92    58    57    1
    93    48    47    1
    94    51    44    1
    95    43    44    1
    96    43    50    1
    97    63    57    1
    98    52    47    1
    99    44    47    1
   100    44    45    1
   101    64    60    1
   102    57    60    1
   103    57    56    1
   104    47    49    1
   105    60    65    1
   106    60    61    1
   107    56    45   am
   108    56    62    1
   109    45    46    2
   110    54    49    1
   111    49    53    1
   112    49    55    1
   113    66    61    1
   114    61    62    1
   115    61    67    1
   116    62    68    1
   117    62    69    1
