@<TRIPOS>MOLECULE
120.11080
 113 117 0 0 0
SMALL
GASTEIGER

@<TRIPOS>ATOM
      1 H         -31.7190   -3.0590   50.0330 H       1  UNL1        0.0666
      2 O         -29.8240   -4.4900   52.3560 O.2     1  UNL1       -0.2708
      3 C         -30.1840   -4.0780   51.2610 C.2     1  UNL1        0.2372
      4 C         -31.4850   -3.4030   51.0310 C.2     1  UNL1       -0.0038
      5 C         -32.3350   -3.2090   52.0520 C.2     1  UNL1       -0.0789
      6 C         -33.6570   -2.5060   51.9180 C.3     1  UNL1       -0.0317
      7 C         -33.7900   -1.2750   52.8410 C.3     1  UNL1       -0.0407
      8 C         -32.6880   -0.2430   52.5670 C.3     1  UNL1       -0.0621
      9 C         -35.1650   -0.5910   52.6880 C.3     1  UNL1       -0.0530
     10 C         -36.3380   -1.4650   53.1080 C.3     1  UNL1       -0.0650
     11 H         -32.0730   -3.5660   53.0470 H       1  UNL1        0.0574
     12 H         -34.4340   -3.2390   52.1640 H       1  UNL1        0.0310
     13 H         -33.8290   -2.2040   50.8770 H       1  UNL1        0.0310
     14 H         -33.6850   -1.6040   53.8840 H       1  UNL1        0.0301
     15 H         -32.8190    0.6440   53.1960 H       1  UNL1        0.0233
     16 H         -31.6980   -0.6520   52.7920 H       1  UNL1        0.0233
     17 H         -32.6970    0.0790   51.5200 H       1  UNL1        0.0233
     18 H         -35.3110   -0.2670   51.6500 H       1  UNL1        0.0265
     19 H         -35.1840    0.3160   53.3060 H       1  UNL1        0.0265
     20 H         -36.1980   -1.8500   54.1230 H       1  UNL1        0.0230
     21 H         -37.2640   -0.8810   53.0920 H       1  UNL1        0.0230
     22 H         -36.4730   -2.3120   52.4290 H       1  UNL1        0.0230
     23 C         -27.1360   -3.5430   50.6390 C.2     1  UNL1        0.2344
     24 N         -29.4080   -4.1540   50.1340 N.am    1  UNL1       -0.3002
     25 O         -26.5880   -2.7840   49.8450 O.2     1  UNL1       -0.2737
     26 F         -30.7790   -7.1940   45.6690 F       1  UNL1       -0.2054
     27 F         -29.2530   -9.8430   49.2500 F       1  UNL1       -0.2054
     28 C         -28.0500   -4.7010   50.1930 C.3     1  UNL1        0.1036
     29 C         -27.5950   -5.2530   48.8340 C.3     1  UNL1       -0.0005
     30 C         -28.4400   -6.4100   48.3460 C.ar    1  UNL1       -0.0397
     31 C         -30.0410   -8.5490   47.4480 C.ar    1  UNL1        0.0088
     32 C         -29.2330   -6.2780   47.1980 C.ar    1  UNL1       -0.0230
     33 C         -28.4520   -7.6330   49.0330 C.ar    1  UNL1       -0.0230
     34 C         -30.0230   -7.3430   46.7650 C.ar    1  UNL1        0.1264
     35 C         -29.2500   -8.6830   48.5790 C.ar    1  UNL1        0.1264
     36 H         -29.7180   -3.7310   49.2710 H       1  UNL1        0.1498
     37 H         -28.0140   -5.4900   50.9540 H       1  UNL1        0.0598
     38 H         -27.6050   -4.4540   48.0810 H       1  UNL1        0.0336
     39 H         -26.5510   -5.5890   48.8970 H       1  UNL1        0.0336
     40 H         -30.6590   -9.3710   47.1060 H       1  UNL1        0.0675
     41 H         -29.2490   -5.3540   46.6260 H       1  UNL1        0.0649
     42 H         -27.8500   -7.7870   49.9240 H       1  UNL1        0.0649
     43 N         -27.1210   -3.3500   51.9970 N.am    1  UNL1       -0.2995
     44 C         -26.4840   -2.2070   52.6760 C.3     1  UNL1        0.1366
     45 C         -26.1200   -2.7580   54.0650 C.2     1  UNL1        0.2402
     46 O         -26.9220   -3.4810   54.6680 O.2     1  UNL1       -0.2734
     47 C         -27.4810   -1.0250   52.7140 C.3     1  UNL1        0.1270
     48 O         -27.3620   -0.3530   51.4310 O.3     1  UNL1       -0.4580
     49 C         -27.2180    0.0120   53.8030 C.3     1  UNL1       -0.0254
     50 H         -27.7080   -3.9490   52.5840 H       1  UNL1        0.1496
     51 H         -25.5900   -1.9440   52.1050 H       1  UNL1        0.0632
     52 H         -28.5010   -1.4140   52.8320 H       1  UNL1        0.0755
     53 H         -26.2950    0.5640   53.6100 H       1  UNL1        0.0266
     54 H         -28.0140    0.7640   53.8120 H       1  UNL1        0.0266
     55 H         -27.1810   -0.4330   54.8010 H       1  UNL1        0.0266
     56 N         -24.8880   -2.4710   54.6100 N.am    1  UNL1       -0.2883
     57 C         -23.9330   -1.4160   54.2380 C.3     1  UNL1        0.1025
     58 C         -23.0660   -1.6960   52.9840 C.2     1  UNL1        0.2367
     59 O         -22.9900   -2.8360   52.5210 O.2     1  UNL1       -0.2735
     60 C         -23.0290   -1.3030   55.4760 C.3     1  UNL1       -0.0243
     61 C         -23.0430   -2.7110   56.0540 C.3     1  UNL1       -0.0350
     62 C         -24.4790   -3.1450   55.8310 C.3     1  UNL1        0.0156
     63 H         -24.5000   -0.5010   54.0720 H       1  UNL1        0.0597
     64 H         -22.0090   -0.9680   55.2650 H       1  UNL1        0.0288
     65 H         -23.4750   -0.6070   56.1970 H       1  UNL1        0.0288
     66 H         -22.3600   -3.3550   55.4870 H       1  UNL1        0.0281
     67 H         -22.7510   -2.7450   57.1070 H       1  UNL1        0.0281
     68 H         -24.5850   -4.2290   55.7310 H       1  UNL1        0.0465
     69 H         -25.1300   -2.8000   56.6440 H       1  UNL1        0.0465
     70 N         -22.3540   -0.6220   52.4280 N.am    1  UNL1       -0.2884
     71 O         -24.2050    2.5320   52.7910 O.2     1  UNL1       -0.2738
     72 C         -22.5230    0.7900   52.8590 C.3     1  UNL1        0.1025
     73 C         -23.7300    1.5370   52.2440 C.2     1  UNL1        0.2342
     74 C         -21.2480    1.6320   52.7180 C.3     1  UNL1       -0.0231
     75 C         -20.5370    1.4170   51.3810 C.3     1  UNL1       -0.0403
     76 C         -19.2580    2.2490   51.3130 C.3     1  UNL1       -0.0623
     77 C         -20.2270   -0.0710   51.2260 C.3     1  UNL1       -0.0345
     78 C         -21.5010   -0.9050   51.2650 C.3     1  UNL1        0.0158
     79 H         -22.7520    0.7830   53.9290 H       1  UNL1        0.0597
     80 H         -20.5630    1.3570   53.5310 H       1  UNL1        0.0290
     81 H         -21.4740    2.6970   52.8520 H       1  UNL1        0.0290
     82 H         -21.1960    1.7380   50.5640 H       1  UNL1        0.0299
     83 H         -18.5570    1.9720   52.1080 H       1  UNL1        0.0232
     84 H         -18.7530    2.1060   50.3520 H       1  UNL1        0.0232
     85 H         -19.4830    3.3160   51.4180 H       1  UNL1        0.0232
     86 H         -19.5560   -0.3980   52.0310 H       1  UNL1        0.0283
     87 H         -19.7030   -0.2540   50.2800 H       1  UNL1        0.0283
     88 H         -21.2250   -1.9650   51.2480 H       1  UNL1        0.0465
     89 H         -22.0880   -0.7280   50.3590 H       1  UNL1        0.0465
     90 N         -24.1680    1.1020   51.0260 N.am    1  UNL1       -0.3027
     91 C         -25.2620    1.7350   50.2960 C.3     1  UNL1        0.0968
     92 C         -25.6280    0.7920   49.1370 C.2     1  UNL1        0.2363
     93 O         -24.7280    0.3010   48.4460 O.2     1  UNL1       -0.2736
     94 C         -24.8550    3.0840   49.7110 C.3     1  UNL1       -0.0381
     95 H         -23.7710    0.2690   50.6060 H       1  UNL1        0.1495
     96 H         -26.0880    1.8770   50.9950 H       1  UNL1        0.0592
     97 H         -24.5990    3.8010   50.4980 H       1  UNL1        0.0252
     98 H         -25.6690    3.5110   49.1160 H       1  UNL1        0.0252
     99 H         -23.9810    2.9870   49.0570 H       1  UNL1        0.0252
    100 N         -26.9530    0.5250   48.8900 N.am    1  UNL1       -0.2865
    101 C         -28.1400    1.0130   49.6100 C.3     1  UNL1        0.1230
    102 C         -28.4300    0.3460   50.9720 C.2     1  UNL1        0.3282
    103 O         -29.4730    0.5080   51.5920 O.2     1  UNL1       -0.2487
    104 C         -29.2850    0.7150   48.6360 C.3     1  UNL1       -0.0225
    105 C         -28.8170   -0.5570   47.9360 C.3     1  UNL1       -0.0349
    106 C         -27.3270   -0.3170   47.7660 C.3     1  UNL1        0.0157
    107 H         -28.0310    2.0870   49.7930 H       1  UNL1        0.0616
    108 H         -30.2620    0.5860   49.1120 H       1  UNL1        0.0289
    109 H         -29.3680    1.5260   47.9020 H       1  UNL1        0.0289
    110 H         -28.9900   -1.4240   48.5840 H       1  UNL1        0.0281
    111 H         -29.3260   -0.7330   46.9850 H       1  UNL1        0.0281
    112 H         -26.7420   -1.2400   47.7460 H       1  UNL1        0.0465
    113 H         -27.1180    0.2440   46.8480 H       1  UNL1        0.0465
@<TRIPOS>BOND
     1    26    34    1
     2    41    32    1
     3    34    32   ar
     4    34    31   ar
     5   113   106    1
     6   111   105    1
     7    40    31    1
     8    32    30   ar
     9    31    35   ar
    10   112   106    1
    11   106   105    1
    12   106   100    1
    13   109   104    1
    14   105   110    1
    15   105   104    1
    16    38    29    1
    17    30    29    1
    18    30    33   ar
    19    93    92    2
    20    35    33   ar
    21    35    27    1
    22   104   108    1
    23   104   101    1
    24    29    39    1
    25    29    28    1
    26   100    92   am
    27   100   101    1
    28    33    42    1
    29    99    94    1
    30    98    94    1
    31    92    91    1
    32    36    24    1
    33   101   107    1
    34   101   102    1
    35    94    91    1
    36    94    97    1
    37    25    23    2
    38     1     4    1
    39    24    28    1
    40    24     3   am
    41    28    23    1
    42    28    37    1
    43    87    77    1
    44    91    96    1
    45    91    90    1
    46    84    76    1
    47    89    78    1
    48    82    75    1
    49    95    90    1
    50    23    43   am
    51    13     6    1
    52   102    48    1
    53   102   103    2
    54    90    73   am
    55     4     3    1
    56     4     5    2
    57    77    78    1
    58    77    75    1
    59    77    86    1
    60    88    78    1
    61     3     2    2
    62    78    70    1
    63    76    75    1
    64    76    85    1
    65    76    83    1
    66    75    74    1
    67    48    47    1
    68    17     8    1
    69    18     9    1
    70     6     5    1
    71     6    12    1
    72     6     7    1
    73    43    50    1
    74    43    44    1
    75     5    11    1
    76    51    44    1
    77    73    71    2
    78    73    72    1
    79    70    72    1
    80    70    58   am
    81    22    10    1
    82    59    58    2
    83     8    16    1
    84     8     7    1
    85     8    15    1
    86    44    47    1
    87    44    45    1
    88     9     7    1
    89     9    10    1
    90     9    19    1
    91    47    52    1
    92    47    49    1
    93    74    81    1
    94    74    72    1
    95    74    80    1
    96     7    14    1
    97    72    79    1
    98    58    57    1
    99    21    10    1
   100    10    20    1
   101    53    49    1
   102    49    54    1
   103    49    55    1
   104    45    56   am
   105    45    46    2
   106    63    57    1
   107    57    56    1
   108    57    60    1
   109    56    62    1
   110    64    60    1
   111    60    61    1
   112    60    65    1
   113    66    61    1
   114    68    62    1
   115    62    61    1
   116    62    69    1
   117    61    67    1
