@<TRIPOS>MOLECULE
129.45258
 113 117 0 0 0
SMALL
GASTEIGER

@<TRIPOS>ATOM
      1 H         -15.7360    4.8490   42.3400 H       1  UNL1        0.0666
      2 O         -18.0540    4.3090   40.0260 O.2     1  UNL1       -0.2708
      3 C         -17.4210    4.1870   41.0670 C.2     1  UNL1        0.2372
      4 C         -16.3040    5.0850   41.4500 C.2     1  UNL1       -0.0038
      5 C         -16.0390    6.1800   40.7190 C.2     1  UNL1       -0.0789
      6 C         -14.9600    7.1720   41.0510 C.3     1  UNL1       -0.0317
      7 C         -15.5090    8.5890   41.3290 C.3     1  UNL1       -0.0407
      8 C         -16.4570    8.5950   42.5370 C.3     1  UNL1       -0.0621
      9 C         -14.3750    9.6050   41.5790 C.3     1  UNL1       -0.0530
     10 C         -13.4830    9.8410   40.3690 C.3     1  UNL1       -0.0650
     11 H         -16.6350    6.3910   39.8310 H       1  UNL1        0.0574
     12 H         -14.2770    7.1960   40.1950 H       1  UNL1        0.0310
     13 H         -14.3720    6.8300   41.9110 H       1  UNL1        0.0310
     14 H         -16.0830    8.9240   40.4540 H       1  UNL1        0.0301
     15 H         -16.8190    9.6090   42.7410 H       1  UNL1        0.0233
     16 H         -17.3380    7.9700   42.3590 H       1  UNL1        0.0233
     17 H         -15.9530    8.2280   43.4370 H       1  UNL1        0.0233
     18 H         -13.7570    9.2780   42.4250 H       1  UNL1        0.0265
     19 H         -14.8150   10.5690   41.8650 H       1  UNL1        0.0265
     20 H         -14.0760   10.1170   39.4910 H       1  UNL1        0.0230
     21 H         -12.7830   10.6570   40.5740 H       1  UNL1        0.0230
     22 H         -12.8910    8.9550   40.1240 H       1  UNL1        0.0230
     23 C         -19.2260    1.8910   43.3120 C.2     1  UNL1        0.2344
     24 N         -17.6880    3.2360   42.0110 N.am    1  UNL1       -0.3002
     25 O         -18.4200    1.8650   44.2400 O.2     1  UNL1       -0.2737
     26 F         -16.8470   -2.7620   43.3740 F       1  UNL1       -0.2054
     27 F         -13.8530   -0.0700   40.9320 F       1  UNL1       -0.2054
     28 C         -18.8320    2.3390   41.8960 C.3     1  UNL1        0.1036
     29 C         -18.5910    1.1340   40.9700 C.3     1  UNL1       -0.0005
     30 C         -17.4530    0.2260   41.3810 C.ar    1  UNL1       -0.0397
     31 C         -15.3210   -1.4380   42.1650 C.ar    1  UNL1        0.0088
     32 C         -17.6800   -0.8860   42.2070 C.ar    1  UNL1       -0.0230
     33 C         -16.1440    0.4910   40.9530 C.ar    1  UNL1       -0.0230
     34 C         -16.6160   -1.7020   42.5880 C.ar    1  UNL1        0.1264
     35 C         -15.0970   -0.3390   41.3480 C.ar    1  UNL1        0.1264
     36 H         -17.1440    3.1620   42.8650 H       1  UNL1        0.1498
     37 H         -19.6660    2.9260   41.4880 H       1  UNL1        0.0598
     38 H         -19.5080    0.5340   40.9030 H       1  UNL1        0.0336
     39 H         -18.3990    1.4890   39.9490 H       1  UNL1        0.0336
     40 H         -14.5010   -2.0770   42.4670 H       1  UNL1        0.0675
     41 H         -18.6770   -1.1290   42.5670 H       1  UNL1        0.0649
     42 H         -15.9270    1.3420   40.3110 H       1  UNL1        0.0649
     43 N         -20.5390    1.5240   43.4490 N.am    1  UNL1       -0.2995
     44 C         -21.1090    0.9950   44.6950 C.3     1  UNL1        0.1366
     45 C         -22.5400    0.5440   44.3190 C.2     1  UNL1        0.2402
     46 O         -23.1910    1.2090   43.5010 O.2     1  UNL1       -0.2734
     47 C         -21.1020    2.0130   45.8610 C.3     1  UNL1        0.1270
     48 O         -21.7570    1.4290   47.0110 O.3     1  UNL1       -0.4580
     49 C         -21.8140    3.3270   45.5410 C.3     1  UNL1       -0.0254
     50 H         -21.1870    1.6290   42.6710 H       1  UNL1        0.1496
     51 H         -20.5110    0.1240   44.9690 H       1  UNL1        0.0632
     52 H         -20.0590    2.2410   46.1080 H       1  UNL1        0.0755
     53 H         -22.8850    3.1700   45.3750 H       1  UNL1        0.0266
     54 H         -21.7350    4.0150   46.3900 H       1  UNL1        0.0266
     55 H         -21.3860    3.8200   44.6650 H       1  UNL1        0.0266
     56 N         -23.0680   -0.5990   44.8740 N.am    1  UNL1       -0.2883
     57 C         -22.4710   -1.4790   45.8820 C.3     1  UNL1        0.1025
     58 C         -21.3460   -2.3790   45.3240 C.2     1  UNL1        0.2367
     59 O         -21.2670   -2.5900   44.1110 O.2     1  UNL1       -0.2735
     60 C         -23.6470   -2.3330   46.3640 C.3     1  UNL1       -0.0243
     61 C         -24.5350   -2.4300   45.1290 C.3     1  UNL1       -0.0350
     62 C         -24.3930   -1.0570   44.4930 C.3     1  UNL1        0.0156
     63 H         -22.0740   -0.8630   46.6830 H       1  UNL1        0.0597
     64 H         -23.3600   -3.3190   46.7400 H       1  UNL1        0.0288
     65 H         -24.1860   -1.8050   47.1610 H       1  UNL1        0.0288
     66 H         -24.1490   -3.2000   44.4510 H       1  UNL1        0.0281
     67 H         -25.5730   -2.6770   45.3680 H       1  UNL1        0.0281
     68 H         -24.5010   -1.0800   43.4040 H       1  UNL1        0.0465
     69 H         -25.1230   -0.3500   44.9040 H       1  UNL1        0.0465
     70 N         -20.4560   -2.9480   46.2400 N.am    1  UNL1       -0.2884
     71 O         -19.0090   -0.7520   46.9620 O.2     1  UNL1       -0.2738
     72 C         -20.4090   -2.6120   47.6910 C.3     1  UNL1        0.1025
     73 C         -19.5800   -1.3090   47.9030 C.2     1  UNL1        0.2342
     74 C         -19.9580   -3.8300   48.5030 C.3     1  UNL1       -0.0231
     75 C         -18.6490   -4.4300   47.9840 C.3     1  UNL1       -0.0403
     76 C         -18.2400   -5.6420   48.8200 C.3     1  UNL1       -0.0623
     77 C         -18.8310   -4.8200   46.5160 C.3     1  UNL1       -0.0345
     78 C         -19.2810   -3.6290   45.6810 C.3     1  UNL1        0.0158
     79 H         -21.4220   -2.3720   48.0250 H       1  UNL1        0.0597
     80 H         -20.7460   -4.5950   48.4360 H       1  UNL1        0.0290
     81 H         -19.8690   -3.5990   49.5640 H       1  UNL1        0.0290
     82 H         -17.8520   -3.6790   48.0610 H       1  UNL1        0.0299
     83 H         -19.0030   -6.4270   48.7860 H       1  UNL1        0.0232
     84 H         -17.3000   -6.0670   48.4520 H       1  UNL1        0.0232
     85 H         -18.0930   -5.3580   49.8670 H       1  UNL1        0.0232
     86 H         -19.5810   -5.6190   46.4350 H       1  UNL1        0.0283
     87 H         -17.8950   -5.2190   46.1090 H       1  UNL1        0.0283
     88 H         -19.4800   -3.9700   44.6590 H       1  UNL1        0.0465
     89 H         -18.4740   -2.8900   45.6120 H       1  UNL1        0.0465
     90 N         -19.5580   -0.6460   49.0920 N.am    1  UNL1       -0.3027
     91 C         -20.0510   -1.0120   50.4170 C.3     1  UNL1        0.0968
     92 C         -20.6040    0.1960   51.2290 C.2     1  UNL1        0.2363
     93 O         -20.3570    0.2970   52.4360 O.2     1  UNL1       -0.2736
     94 C         -18.9100   -1.6610   51.2080 C.3     1  UNL1       -0.0381
     95 H         -19.0090    0.2130   49.0400 H       1  UNL1        0.1495
     96 H         -20.8750   -1.7230   50.3010 H       1  UNL1        0.0592
     97 H         -18.4080   -2.4510   50.6420 H       1  UNL1        0.0252
     98 H         -19.2800   -2.0950   52.1430 H       1  UNL1        0.0252
     99 H         -18.1430   -0.9210   51.4650 H       1  UNL1        0.0252
    100 N         -21.5180    1.0500   50.6490 N.am    1  UNL1       -0.2865
    101 C         -22.1070    1.0120   49.3080 C.3     1  UNL1        0.1230
    102 C         -21.2400    1.7030   48.2430 C.2     1  UNL1        0.3282
    103 O         -20.2550    2.3900   48.4710 O.2     1  UNL1       -0.2487
    104 C         -23.4170    1.7850   49.4760 C.3     1  UNL1       -0.0225
    105 C         -23.0470    2.8540   50.5000 C.3     1  UNL1       -0.0349
    106 C         -22.1140    2.1150   51.4460 C.3     1  UNL1        0.0157
    107 H         -22.2720   -0.0290   49.0130 H       1  UNL1        0.0616
    108 H         -23.8030    2.2200   48.5490 H       1  UNL1        0.0289
    109 H         -24.1880    1.1280   49.8940 H       1  UNL1        0.0289
    110 H         -22.5140    3.6760   50.0090 H       1  UNL1        0.0281
    111 H         -23.9180    3.2730   51.0110 H       1  UNL1        0.0281
    112 H         -21.3360    2.7620   51.8630 H       1  UNL1        0.0465
    113 H         -22.6690    1.6550   52.2710 H       1  UNL1        0.0465
@<TRIPOS>BOND
     1    20    10    1
     2    11     5    1
     3    39    29    1
     4     2     3    2
     5    22    10    1
     6    12     6    1
     7    42    33    1
     8    10    21    1
     9    10     9    1
    10    14     7    1
    11     5     6    1
    12     5     4    2
    13    38    29    1
    14    27    35    1
    15    33    35   ar
    16    33    30   ar
    17    29    30    1
    18    29    28    1
    19     6     7    1
    20     6    13    1
    21     3     4    1
    22     3    24   am
    23     7     9    1
    24     7     8    1
    25    35    31   ar
    26    30    32   ar
    27     4     1    1
    28    37    28    1
    29     9    19    1
    30     9    18    1
    31    28    24    1
    32    28    23    1
    33    24    36    1
    34    31    40    1
    35    31    34   ar
    36    32    41    1
    37    32    34   ar
    38    16     8    1
    39     8    15    1
    40     8    17    1
    41    34    26    1
    42    50    43    1
    43    23    43   am
    44    23    25    2
    45    68    62    1
    46    43    44    1
    47    46    45    2
    48    59    58    2
    49    45    44    1
    50    45    56   am
    51    66    61    1
    52    62    56    1
    53    62    69    1
    54    62    61    1
    55    88    78    1
    56    55    49    1
    57    44    51    1
    58    44    47    1
    59    56    57    1
    60    61    67    1
    61    61    60    1
    62    58    57    1
    63    58    70   am
    64    53    49    1
    65    49    47    1
    66    49    54    1
    67    89    78    1
    68    78    70    1
    69    78    77    1
    70    47    52    1
    71    47    48    1
    72    57    60    1
    73    57    63    1
    74    87    77    1
    75    70    72    1
    76    60    64    1
    77    60    65    1
    78    86    77    1
    79    77    75    1
    80    71    73    2
    81    48   102    1
    82    72    73    1
    83    72    79    1
    84    72    74    1
    85    73    90   am
    86    75    82    1
    87    75    74    1
    88    75    76    1
    89   102   103    2
    90   102   101    1
    91    80    74    1
    92    84    76    1
    93    74    81    1
    94   108   104    1
    95    83    76    1
    96    76    85    1
    97   107   101    1
    98    95    90    1
    99    90    91    1
   100   101   104    1
   101   101   100    1
   102   104   109    1
   103   104   105    1
   104   110   105    1
   105    96    91    1
   106    91    94    1
   107    91    92    1
   108   105   111    1
   109   105   106    1
   110    97    94    1
   111   100    92   am
   112   100   106    1
   113    94    99    1
   114    94    98    1
   115    92    93    2
   116   106   112    1
   117   106   113    1
