@<TRIPOS>MOLECULE
128.77606
 113 117 0 0 0
SMALL
GASTEIGER

@<TRIPOS>ATOM
      1 H         -14.8430    2.9060   42.0550 H       1  UNL1        0.0666
      2 O         -17.3670    3.6110   40.0230 O.2     1  UNL1       -0.2708
      3 C         -16.7600    3.1520   40.9820 C.2     1  UNL1        0.2372
      4 C         -15.3400    3.4670   41.2740 C.2     1  UNL1       -0.0038
      5 C         -14.7020    4.4310   40.5930 C.2     1  UNL1       -0.0789
      6 C         -13.2680    4.8150   40.8320 C.3     1  UNL1       -0.0317
      7 C         -13.1030    6.2580   41.3560 C.3     1  UNL1       -0.0407
      8 C         -13.8000    6.4430   42.7120 C.3     1  UNL1       -0.0621
      9 C         -11.6180    6.6470   41.5020 C.3     1  UNL1       -0.0530
     10 C         -10.8640    6.7040   40.1810 C.3     1  UNL1       -0.0650
     11 H         -15.2300    4.9810   39.8140 H       1  UNL1        0.0574
     12 H         -12.7460    4.7000   39.8760 H       1  UNL1        0.0310
     13 H         -12.7930    4.1140   41.5300 H       1  UNL1        0.0310
     14 H         -13.5720    6.9500   40.6430 H       1  UNL1        0.0301
     15 H         -13.6510    7.4600   43.0900 H       1  UNL1        0.0233
     16 H         -14.8800    6.2840   42.6330 H       1  UNL1        0.0233
     17 H         -13.4060    5.7440   43.4580 H       1  UNL1        0.0233
     18 H         -11.1090    5.9470   42.1770 H       1  UNL1        0.0265
     19 H         -11.5510    7.6380   41.9690 H       1  UNL1        0.0265
     20 H         -11.3740    7.3560   39.4650 H       1  UNL1        0.0230
     21 H          -9.8570    7.1020   40.3420 H       1  UNL1        0.0230
     22 H         -10.7560    5.7120   39.7330 H       1  UNL1        0.0230
     23 C         -19.1300    1.4550   43.2550 C.2     1  UNL1        0.2344
     24 N         -17.3140    2.3080   41.9010 N.am    1  UNL1       -0.3002
     25 O         -18.3090    1.2050   44.1350 O.2     1  UNL1       -0.2737
     26 F         -18.1540   -3.6460   42.6710 F       1  UNL1       -0.2054
     27 F         -15.0090   -1.8010   39.6960 F       1  UNL1       -0.2054
     28 C         -18.7120    1.8990   41.8440 C.3     1  UNL1        0.1036
     29 C         -18.9930    0.8070   40.7950 C.3     1  UNL1       -0.0005
     30 C         -18.1550   -0.4450   40.9330 C.ar    1  UNL1       -0.0397
     31 C         -16.5630   -2.7550   41.1860 C.ar    1  UNL1        0.0088
     32 C         -18.5590   -1.5050   41.7590 C.ar    1  UNL1       -0.0230
     33 C         -16.9430   -0.5610   40.2350 C.ar    1  UNL1       -0.0230
     34 C         -17.7610   -2.6420   41.8770 C.ar    1  UNL1        0.1264
     35 C         -16.1640   -1.7090   40.3690 C.ar    1  UNL1        0.1264
     36 H         -16.7840    1.9700   42.6990 H       1  UNL1        0.1498
     37 H         -19.3060    2.7870   41.5910 H       1  UNL1        0.0598
     38 H         -20.0530    0.5210   40.8220 H       1  UNL1        0.0336
     39 H         -18.8330    1.2210   39.7910 H       1  UNL1        0.0336
     40 H         -15.9520   -3.6430   41.2840 H       1  UNL1        0.0675
     41 H         -19.4910   -1.4650   42.3200 H       1  UNL1        0.0649
     42 H         -16.5940    0.2370   39.5840 H       1  UNL1        0.0649
     43 N         -20.4840    1.3610   43.4530 N.am    1  UNL1       -0.2995
     44 C         -21.0740    0.8820   44.7070 C.3     1  UNL1        0.1366
     45 C         -22.5380    0.5270   44.3610 C.2     1  UNL1        0.2402
     46 O         -23.1600    1.2300   43.5540 O.2     1  UNL1       -0.2734
     47 C         -20.9720    1.9110   45.8580 C.3     1  UNL1        0.1270
     48 O         -21.6690    1.3970   47.0150 O.3     1  UNL1       -0.4580
     49 C         -21.5730    3.2760   45.5230 C.3     1  UNL1       -0.0254
     50 H         -21.1380    1.6200   42.7180 H       1  UNL1        0.1496
     51 H         -20.5370   -0.0250   44.9870 H       1  UNL1        0.0632
     52 H         -19.9100    2.0500   46.0930 H       1  UNL1        0.0755
     53 H         -22.6540    3.2070   45.3600 H       1  UNL1        0.0266
     54 H         -21.4360    3.9660   46.3630 H       1  UNL1        0.0266
     55 H         -21.1070    3.7210   44.6400 H       1  UNL1        0.0266
     56 N         -23.1240   -0.5810   44.9330 N.am    1  UNL1       -0.2883
     57 C         -22.5650   -1.4830   45.9450 C.3     1  UNL1        0.1025
     58 C         -21.4890   -2.4400   45.3870 C.2     1  UNL1        0.2367
     59 O         -21.4430   -2.6750   44.1770 O.2     1  UNL1       -0.2735
     60 C         -23.7780   -2.2770   46.4380 C.3     1  UNL1       -0.0243
     61 C         -24.6790   -2.3330   45.2090 C.3     1  UNL1       -0.0350
     62 C         -24.4760   -0.9690   44.5690 C.3     1  UNL1        0.0156
     63 H         -22.1360   -0.8820   46.7410 H       1  UNL1        0.0597
     64 H         -23.5360   -3.2750   46.8150 H       1  UNL1        0.0288
     65 H         -24.2850   -1.7220   47.2370 H       1  UNL1        0.0288
     66 H         -24.3350   -3.1230   44.5310 H       1  UNL1        0.0281
     67 H         -25.7260   -2.5300   45.4560 H       1  UNL1        0.0281
     68 H         -24.5990   -0.9890   43.4820 H       1  UNL1        0.0465
     69 H         -25.1620   -0.2260   44.9890 H       1  UNL1        0.0465
     70 N         -20.6060   -3.0280   46.2980 N.am    1  UNL1       -0.2884
     71 O         -19.0570   -0.8820   46.9910 O.2     1  UNL1       -0.2738
     72 C         -20.5240   -2.6800   47.7450 C.3     1  UNL1        0.1025
     73 C         -19.6490   -1.4050   47.9380 C.2     1  UNL1        0.2342
     74 C         -20.0910   -3.9010   48.5620 C.3     1  UNL1       -0.0231
     75 C         -18.7990   -4.5280   48.0300 C.3     1  UNL1       -0.0403
     76 C         -18.3910   -5.7320   48.8760 C.3     1  UNL1       -0.0623
     77 C         -19.0160   -4.9370   46.5720 C.3     1  UNL1       -0.0345
     78 C         -19.4640   -3.7530   45.7250 C.3     1  UNL1        0.0158
     79 H         -21.5250   -2.4060   48.0910 H       1  UNL1        0.0597
     80 H         -20.8940   -4.6500   48.5100 H       1  UNL1        0.0290
     81 H         -19.9830   -3.6630   49.6190 H       1  UNL1        0.0290
     82 H         -17.9900   -3.7880   48.0800 H       1  UNL1        0.0299
     83 H         -19.1650   -6.5070   48.8690 H       1  UNL1        0.0232
     84 H         -17.4640   -6.1750   48.4990 H       1  UNL1        0.0232
     85 H         -18.2210   -5.4340   49.9160 H       1  UNL1        0.0232
     86 H         -19.7790   -5.7250   46.5190 H       1  UNL1        0.0283
     87 H         -18.0940   -5.3570   46.1540 H       1  UNL1        0.0283
     88 H         -19.7040   -4.1150   44.7190 H       1  UNL1        0.0465
     89 H         -18.6420   -3.0370   45.6120 H       1  UNL1        0.0465
     90 N         -19.5940   -0.7310   49.1210 N.am    1  UNL1       -0.3027
     91 C         -20.0960   -1.0610   50.4520 C.3     1  UNL1        0.0968
     92 C         -20.6070    0.1750   51.2510 C.2     1  UNL1        0.2363
     93 O         -20.3680    0.2730   52.4600 O.2     1  UNL1       -0.2736
     94 C         -18.9750   -1.7360   51.2500 C.3     1  UNL1       -0.0381
     95 H         -19.0100    0.1030   49.0580 H       1  UNL1        0.1495
     96 H         -20.9430   -1.7460   50.3470 H       1  UNL1        0.0592
     97 H         -18.4980   -2.5470   50.6930 H       1  UNL1        0.0252
     98 H         -19.3580   -2.1480   52.1900 H       1  UNL1        0.0252
     99 H         -18.1850   -1.0180   51.4990 H       1  UNL1        0.0252
    100 N         -21.4780    1.0640   50.6580 N.am    1  UNL1       -0.2865
    101 C         -22.0590    1.0380   49.3140 C.3     1  UNL1        0.1230
    102 C         -21.1520    1.6720   48.2450 C.2     1  UNL1        0.3282
    103 O         -20.1380    2.3170   48.4680 O.2     1  UNL1       -0.2487
    104 C         -23.3320    1.8730   49.4610 C.3     1  UNL1       -0.0225
    105 C         -22.9250    2.9310   50.4810 C.3     1  UNL1       -0.0349
    106 C         -22.0360    2.1580   51.4420 C.3     1  UNL1        0.0157
    107 H         -22.2710    0.0030   49.0310 H       1  UNL1        0.0616
    108 H         -23.6880    2.3170   48.5260 H       1  UNL1        0.0289
    109 H         -24.1380    1.2550   49.8760 H       1  UNL1        0.0289
    110 H         -22.3490    3.7240   49.9890 H       1  UNL1        0.0281
    111 H         -23.7810    3.3940   50.9800 H       1  UNL1        0.0281
    112 H         -21.2360    2.7720   51.8660 H       1  UNL1        0.0465
    113 H         -22.6210    1.7260   52.2620 H       1  UNL1        0.0465
@<TRIPOS>BOND
     1    20    10    1
     2    42    33    1
     3    27    35    1
     4    22    10    1
     5    39    29    1
     6    11     5    1
     7    12     6    1
     8     2     3    2
     9    10    21    1
    10    10     9    1
    11    33    35   ar
    12    33    30   ar
    13    35    31   ar
    14     5     6    1
    15     5     4    2
    16    14     7    1
    17    29    38    1
    18    29    30    1
    19    29    28    1
    20     6     7    1
    21     6    13    1
    22    30    32   ar
    23     3     4    1
    24     3    24   am
    25    31    40    1
    26    31    34   ar
    27     4     1    1
    28     7     9    1
    29     7     8    1
    30     9    19    1
    31     9    18    1
    32    37    28    1
    33    32    34   ar
    34    32    41    1
    35    28    24    1
    36    28    23    1
    37    34    26    1
    38    24    36    1
    39    16     8    1
    40     8    15    1
    41     8    17    1
    42    50    43    1
    43    23    43   am
    44    23    25    2
    45    43    44    1
    46    68    62    1
    47    46    45    2
    48    59    58    2
    49    45    44    1
    50    45    56   am
    51    66    61    1
    52    62    56    1
    53    62    69    1
    54    62    61    1
    55    55    49    1
    56    44    51    1
    57    44    47    1
    58    88    78    1
    59    56    57    1
    60    61    67    1
    61    61    60    1
    62    53    49    1
    63    58    57    1
    64    58    70   am
    65    49    47    1
    66    49    54    1
    67    89    78    1
    68    78    70    1
    69    78    77    1
    70    47    52    1
    71    47    48    1
    72    57    60    1
    73    57    63    1
    74    87    77    1
    75    70    72    1
    76    60    64    1
    77    60    65    1
    78    86    77    1
    79    77    75    1
    80    71    73    2
    81    48   102    1
    82    72    73    1
    83    72    79    1
    84    72    74    1
    85    73    90   am
    86    75    82    1
    87    75    74    1
    88    75    76    1
    89   102   103    2
    90   102   101    1
    91    84    76    1
    92    80    74    1
    93   108   104    1
    94    74    81    1
    95    83    76    1
    96    76    85    1
    97   107   101    1
    98    95    90    1
    99    90    91    1
   100   101   104    1
   101   101   100    1
   102   104   109    1
   103   104   105    1
   104   110   105    1
   105    96    91    1
   106    91    94    1
   107    91    92    1
   108   105   111    1
   109   105   106    1
   110   100    92   am
   111   100   106    1
   112    97    94    1
   113    94    99    1
   114    94    98    1
   115    92    93    2
   116   106   112    1
   117   106   113    1
