@<TRIPOS>MOLECULE
119.17406
 113 117 0 0 0
SMALL
GASTEIGER

@<TRIPOS>ATOM
      1 H         -31.5520   -2.7980   49.9720 H       1  UNL1        0.0666
      2 O         -29.7460   -4.2330   52.3630 O.2     1  UNL1       -0.2708
      3 C         -30.0960   -3.8770   51.2450 C.2     1  UNL1        0.2372
      4 C         -31.3150   -3.0710   50.9920 C.2     1  UNL1       -0.0038
      5 C         -32.0890   -2.6790   52.0150 C.2     1  UNL1       -0.0789
      6 C         -33.3250   -1.8370   51.8590 C.3     1  UNL1       -0.0317
      7 C         -33.2660   -0.5160   52.6570 C.3     1  UNL1       -0.0407
      8 C         -32.0700    0.3460   52.2320 C.3     1  UNL1       -0.0621
      9 C         -34.5600    0.3080   52.4980 C.3     1  UNL1       -0.0530
     10 C         -35.8000   -0.3780   53.0550 C.3     1  UNL1       -0.0650
     11 H         -31.8280   -2.9710   53.0330 H       1  UNL1        0.0574
     12 H         -34.1690   -2.4430   52.2060 H       1  UNL1        0.0310
     13 H         -33.5100   -1.6180   50.8000 H       1  UNL1        0.0310
     14 H         -33.1410   -0.7540   53.7220 H       1  UNL1        0.0301
     15 H         -32.0620    1.2970   52.7770 H       1  UNL1        0.0233
     16 H         -31.1220   -0.1560   52.4470 H       1  UNL1        0.0233
     17 H         -32.1040    0.5710   51.1600 H       1  UNL1        0.0233
     18 H         -34.7260    0.5470   51.4400 H       1  UNL1        0.0265
     19 H         -34.4420    1.2650   53.0210 H       1  UNL1        0.0265
     20 H         -35.6480   -0.6800   54.0960 H       1  UNL1        0.0230
     21 H         -36.6530    0.3080   53.0230 H       1  UNL1        0.0230
     22 H         -36.0690   -1.2620   52.4700 H       1  UNL1        0.0230
     23 C         -27.0210   -3.8230   50.5200 C.2     1  UNL1        0.2344
     24 N         -29.3780   -4.1430   50.1090 N.am    1  UNL1       -0.3002
     25 O         -26.3560   -3.2420   49.6670 O.2     1  UNL1       -0.2737
     26 F         -31.2790   -7.2150   45.8650 F       1  UNL1       -0.2054
     27 F         -30.0910   -9.8130   49.6070 F       1  UNL1       -0.2054
     28 C         -28.1040   -4.8640   50.1760 C.3     1  UNL1        0.1036
     29 C         -27.7730   -5.5660   48.8490 C.3     1  UNL1       -0.0005
     30 C         -28.7920   -6.6120   48.4550 C.ar    1  UNL1       -0.0397
     31 C         -30.7150   -8.5410   47.7270 C.ar    1  UNL1        0.0088
     32 C         -29.5810   -6.4410   47.3080 C.ar    1  UNL1       -0.0230
     33 C         -28.9730   -7.7700   49.2260 C.ar    1  UNL1       -0.0230
     34 C         -30.5300   -7.4010   46.9600 C.ar    1  UNL1        0.1264
     35 C         -29.9290   -8.7160   48.8560 C.ar    1  UNL1        0.1264
     36 H         -29.6710   -3.7690   49.2180 H       1  UNL1        0.1498
     37 H         -28.1520   -5.5980   50.9900 H       1  UNL1        0.0598
     38 H         -27.6860   -4.8240   48.0440 H       1  UNL1        0.0336
     39 H         -26.7890   -6.0480   48.9160 H       1  UNL1        0.0336
     40 H         -31.4550   -9.2810   47.4500 H       1  UNL1        0.0675
     41 H         -29.4690   -5.5670   46.6720 H       1  UNL1        0.0649
     42 H         -28.3810   -7.9510   50.1190 H       1  UNL1        0.0649
     43 N         -26.9640   -3.5100   51.8550 N.am    1  UNL1       -0.2995
     44 C         -26.1170   -2.4510   52.4240 C.3     1  UNL1        0.1366
     45 C         -25.7440   -2.9660   53.8230 C.2     1  UNL1        0.2402
     46 O         -26.6100   -3.4740   54.5450 O.2     1  UNL1       -0.2734
     47 C         -26.9060   -1.1210   52.4490 C.3     1  UNL1        0.1270
     48 O         -26.8320   -0.5870   51.1000 O.3     1  UNL1       -0.4580
     49 C         -26.3430   -0.0680   53.4010 C.3     1  UNL1       -0.0254
     50 H         -27.6310   -3.9540   52.4930 H       1  UNL1        0.1496
     51 H         -25.2360   -2.3570   51.7860 H       1  UNL1        0.0632
     52 H         -27.9550   -1.3200   52.7070 H       1  UNL1        0.0755
     53 H         -25.3610    0.2780   53.0690 H       1  UNL1        0.0266
     54 H         -26.9830    0.8210   53.4130 H       1  UNL1        0.0266
     55 H         -26.2750   -0.4320   54.4290 H       1  UNL1        0.0266
     56 N         -24.4340   -2.8840   54.2420 N.am    1  UNL1       -0.2883
     57 C         -23.3350   -2.0870   53.6770 C.3     1  UNL1        0.1025
     58 C         -22.6840   -2.6640   52.3940 C.2     1  UNL1        0.2367
     59 O         -22.8630   -3.8430   52.0810 O.2     1  UNL1       -0.2735
     60 C         -22.3010   -2.0490   54.8130 C.3     1  UNL1       -0.0243
     61 C         -22.5330   -3.3640   55.5460 C.3     1  UNL1       -0.0350
     62 C         -24.0410   -3.5150   55.4910 C.3     1  UNL1        0.0156
     63 H         -23.7260   -1.0940   53.4580 H       1  UNL1        0.0597
     64 H         -21.2640   -1.9540   54.4790 H       1  UNL1        0.0288
     65 H         -22.5230   -1.2110   55.4870 H       1  UNL1        0.0288
     66 H         -22.0500   -4.1840   55.0020 H       1  UNL1        0.0281
     67 H         -22.1470   -3.3570   56.5690 H       1  UNL1        0.0281
     68 H         -24.3660   -4.5590   55.5180 H       1  UNL1        0.0465
     69 H         -24.5260   -2.9730   56.3110 H       1  UNL1        0.0465
     70 N         -21.8680   -1.8120   51.6330 N.am    1  UNL1       -0.2884
     71 O         -23.0390    1.6610   51.8530 O.2     1  UNL1       -0.2738
     72 C         -21.7100   -0.3620   51.9090 C.3     1  UNL1        0.1025
     73 C         -22.8260    0.5550   51.3550 C.2     1  UNL1        0.2342
     74 C         -20.3300    0.1900   51.5220 C.3     1  UNL1       -0.0231
     75 C         -19.8570   -0.2920   50.1500 C.3     1  UNL1       -0.0403
     76 C         -18.4650    0.2540   49.8390 C.3     1  UNL1       -0.0623
     77 C         -19.8570   -1.8200   50.1410 C.3     1  UNL1       -0.0345
     78 C         -21.2480   -2.3710   50.4240 C.3     1  UNL1        0.0158
     79 H         -21.7860   -0.2240   52.9920 H       1  UNL1        0.0597
     80 H         -19.6050   -0.1370   52.2810 H       1  UNL1        0.0290
     81 H         -20.3330    1.2860   51.5510 H       1  UNL1        0.0290
     82 H         -20.5460    0.0750   49.3790 H       1  UNL1        0.0299
     83 H         -17.7290   -0.0820   50.5790 H       1  UNL1        0.0232
     84 H         -18.1280   -0.0800   48.8520 H       1  UNL1        0.0232
     85 H         -18.4680    1.3490   49.8400 H       1  UNL1        0.0232
     86 H         -19.1580   -2.1960   50.8990 H       1  UNL1        0.0283
     87 H         -19.5090   -2.1950   49.1720 H       1  UNL1        0.0283
     88 H         -21.1820   -3.4610   50.5020 H       1  UNL1        0.0465
     89 H         -21.9090   -2.1650   49.5760 H       1  UNL1        0.0465
     90 N         -23.4780    0.1320   50.2310 N.am    1  UNL1       -0.3027
     91 C         -24.5080    0.9240   49.5640 C.3     1  UNL1        0.0968
     92 C         -25.1990    0.0030   48.5420 C.2     1  UNL1        0.2363
     93 O         -24.5110   -0.7070   47.8000 O.2     1  UNL1       -0.2736
     94 C         -23.9150    2.1140   48.8150 C.3     1  UNL1       -0.0381
     95 H         -23.3040   -0.7920   49.8510 H       1  UNL1        0.1495
     96 H         -25.1960    1.2850   50.3300 H       1  UNL1        0.0592
     97 H         -23.4270    2.8150   49.4990 H       1  UNL1        0.0252
     98 H         -24.6950    2.6590   48.2730 H       1  UNL1        0.0252
     99 H         -23.1650    1.7910   48.0840 H       1  UNL1        0.0252
    100 N         -26.5720    0.0060   48.4670 N.am    1  UNL1       -0.2865
    101 C         -27.5360    0.7880   49.2600 C.3     1  UNL1        0.1230
    102 C         -27.7820    0.2950   50.7010 C.2     1  UNL1        0.3282
    103 O         -28.6810    0.7190   51.4160 O.2     1  UNL1       -0.2487
    104 C         -28.8300    0.6720   48.4470 C.3     1  UNL1       -0.0225
    105 C         -28.7210   -0.7180   47.8280 C.3     1  UNL1       -0.0349
    106 C         -27.2460   -0.8160   47.4780 C.3     1  UNL1        0.0157
    107 H         -27.1880    1.8240   49.3270 H       1  UNL1        0.0616
    108 H         -29.7450    0.7890   49.0340 H       1  UNL1        0.0289
    109 H         -28.8370    1.4260   47.6500 H       1  UNL1        0.0289
    110 H         -28.9840   -1.4790   48.5720 H       1  UNL1        0.0281
    111 H         -29.3700   -0.8510   46.9580 H       1  UNL1        0.0281
    112 H         -26.8710   -1.8430   47.4890 H       1  UNL1        0.0465
    113 H         -27.0430   -0.3840   46.4910 H       1  UNL1        0.0465
@<TRIPOS>BOND
     1    26    34    1
     2   113   106    1
     3    41    32    1
     4   111   105    1
     5    34    32   ar
     6    34    31   ar
     7    32    30   ar
     8    40    31    1
     9   106   112    1
    10   106   105    1
    11   106   100    1
    12   109   104    1
    13    31    35   ar
    14    93    92    2
    15   105   104    1
    16   105   110    1
    17    38    29    1
    18    99    94    1
    19    98    94    1
    20   104   108    1
    21   104   101    1
    22    30    29    1
    23    30    33   ar
    24   100    92   am
    25   100   101    1
    26    92    91    1
    27    94    97    1
    28    94    91    1
    29    29    39    1
    30    29    28    1
    31    84    76    1
    32    35    33   ar
    33    35    27    1
    34    87    77    1
    35    36    24    1
    36    33    42    1
    37   101   107    1
    38   101   102    1
    39    82    75    1
    40    91    90    1
    41    91    96    1
    42    89    78    1
    43    25    23    2
    44    76    85    1
    45    76    75    1
    46    76    83    1
    47    95    90    1
    48     1     4    1
    49    24    28    1
    50    24     3   am
    51    77    75    1
    52    77    78    1
    53    77    86    1
    54    75    74    1
    55    28    23    1
    56    28    37    1
    57    90    73   am
    58    78    88    1
    59    78    70    1
    60    23    43   am
    61   102    48    1
    62   102   103    2
    63    13     6    1
    64     4     3    1
    65     4     5    2
    66    48    47    1
    67    17     8    1
    68     3     2    2
    69    73    71    2
    70    73    72    1
    71    18     9    1
    72    74    81    1
    73    74    72    1
    74    74    80    1
    75    70    72    1
    76    70    58   am
    77    51    44    1
    78    43    44    1
    79    43    50    1
    80     6     5    1
    81     6    12    1
    82     6     7    1
    83    72    79    1
    84     5    11    1
    85    59    58    2
    86     8    16    1
    87     8     7    1
    88     8    15    1
    89    58    57    1
    90    44    47    1
    91    44    45    1
    92    47    52    1
    93    47    49    1
    94    22    10    1
    95     9     7    1
    96     9    19    1
    97     9    10    1
    98     7    14    1
    99    21    10    1
   100    10    20    1
   101    53    49    1
   102    49    54    1
   103    49    55    1
   104    63    57    1
   105    57    56    1
   106    57    60    1
   107    45    56   am
   108    45    46    2
   109    56    62    1
   110    64    60    1
   111    60    65    1
   112    60    61    1
   113    66    61    1
   114    62    68    1
   115    62    61    1
   116    62    69    1
   117    61    67    1
