@<TRIPOS>MOLECULE
130.25269
 113 117 0 0 0
SMALL
GASTEIGER

@<TRIPOS>ATOM
      1 H         -28.5490   -6.0000   45.9690 H       1  UNL1        0.0666
      2 O         -30.7930   -5.3290   48.3210 O.2     1  UNL1       -0.2708
      3 C         -29.7040   -5.5070   47.7910 C.2     1  UNL1        0.2372
      4 C         -29.5410   -5.7800   46.3410 C.2     1  UNL1       -0.0038
      5 C         -30.6040   -5.7450   45.5220 C.2     1  UNL1       -0.0789
      6 C         -30.5370   -6.0090   44.0430 C.3     1  UNL1       -0.0317
      7 C         -30.9650   -4.7910   43.1990 C.3     1  UNL1       -0.0407
      8 C         -29.9750   -3.6280   43.3370 C.3     1  UNL1       -0.0621
      9 C         -31.1860   -5.1700   41.7200 C.3     1  UNL1       -0.0530
     10 C         -29.9570   -5.6890   40.9860 C.3     1  UNL1       -0.0650
     11 H         -31.5900   -5.5230   45.9290 H       1  UNL1        0.0574
     12 H         -31.2030   -6.8540   43.8280 H       1  UNL1        0.0310
     13 H         -29.5260   -6.3270   43.7620 H       1  UNL1        0.0310
     14 H         -31.9350   -4.4360   43.5750 H       1  UNL1        0.0301
     15 H         -30.2520   -2.8010   42.6740 H       1  UNL1        0.0233
     16 H         -29.9690   -3.2370   44.3600 H       1  UNL1        0.0233
     17 H         -28.9540   -3.9350   43.0920 H       1  UNL1        0.0233
     18 H         -31.5680   -4.2940   41.1810 H       1  UNL1        0.0265
     19 H         -31.9740   -5.9320   41.6620 H       1  UNL1        0.0265
     20 H         -29.5740   -6.6070   41.4410 H       1  UNL1        0.0230
     21 H         -30.2150   -5.9190   39.9470 H       1  UNL1        0.0230
     22 H         -29.1540   -4.9470   40.9700 H       1  UNL1        0.0230
     23 C         -27.0440   -4.6630   50.2190 C.2     1  UNL1        0.2344
     24 N         -28.5170   -5.4760   48.4670 N.am    1  UNL1       -0.3002
     25 O         -26.0730   -4.8870   49.4990 O.2     1  UNL1       -0.2737
     26 F         -24.9810   -9.3410   51.6020 F       1  UNL1       -0.2054
     27 F         -28.1480  -10.6010   48.3570 F       1  UNL1       -0.2054
     28 C         -28.4500   -5.2000   49.8980 C.3     1  UNL1        0.1036
     29 C         -28.8180   -6.4060   50.7800 C.3     1  UNL1       -0.0005
     30 C         -28.0240   -7.6660   50.5080 C.ar    1  UNL1       -0.0397
     31 C         -26.5450  -10.0020   49.9730 C.ar    1  UNL1        0.0088
     32 C         -26.8380   -7.9350   51.2050 C.ar    1  UNL1       -0.0230
     33 C         -28.4610   -8.5850   49.5430 C.ar    1  UNL1       -0.0230
     34 C         -26.1150   -9.0950   50.9310 C.ar    1  UNL1        0.1264
     35 C         -27.7190   -9.7360   49.2860 C.ar    1  UNL1        0.1264
     36 H         -27.6310   -5.6270   47.9960 H       1  UNL1        0.1498
     37 H         -29.1630   -4.3920   50.1070 H       1  UNL1        0.0598
     38 H         -28.7060   -6.1420   51.8400 H       1  UNL1        0.0336
     39 H         -29.8830   -6.6390   50.6500 H       1  UNL1        0.0336
     40 H         -25.9750  -10.8990   49.7670 H       1  UNL1        0.0675
     41 H         -26.4640   -7.2520   51.9650 H       1  UNL1        0.0649
     42 H         -29.3780   -8.4160   48.9840 H       1  UNL1        0.0649
     43 N         -26.9690   -3.8970   51.3550 N.am    1  UNL1       -0.2995
     44 C         -25.7230   -3.2680   51.8300 C.3     1  UNL1        0.1366
     45 C         -26.0490   -2.8250   53.2690 C.2     1  UNL1        0.2402
     46 O         -27.1140   -2.2280   53.4840 O.2     1  UNL1       -0.2734
     47 C         -25.3050   -2.0920   50.9180 C.3     1  UNL1        0.1270
     48 O         -23.9860   -1.5720   51.1990 O.3     1  UNL1       -0.4580
     49 C         -26.2530   -0.8930   50.9520 C.3     1  UNL1       -0.0254
     50 H         -27.8040   -3.7120   51.9070 H       1  UNL1        0.1496
     51 H         -24.9560   -4.0380   51.8190 H       1  UNL1        0.0632
     52 H         -25.3000   -2.4390   49.8760 H       1  UNL1        0.0755
     53 H         -26.1960   -0.3620   51.9080 H       1  UNL1        0.0266
     54 H         -25.9590   -0.1650   50.1870 H       1  UNL1        0.0266
     55 H         -27.2900   -1.1850   50.7610 H       1  UNL1        0.0266
     56 N         -25.2330   -3.1860   54.3160 N.am    1  UNL1       -0.2883
     57 C         -23.8900   -3.8060   54.2940 C.3     1  UNL1        0.1025
     58 C         -23.9140   -5.2530   53.7340 C.2     1  UNL1        0.2367
     59 O         -24.9790   -5.8740   53.6620 O.2     1  UNL1       -0.2735
     60 C         -23.4460   -3.7450   55.7630 C.3     1  UNL1       -0.0243
     61 C         -24.7480   -3.7150   56.5500 C.3     1  UNL1       -0.0350
     62 C         -25.6520   -2.8810   55.6730 C.3     1  UNL1        0.0156
     63 H         -23.2530   -3.1950   53.6480 H       1  UNL1        0.0597
     64 H         -22.8340   -4.5820   56.1030 H       1  UNL1        0.0288
     65 H         -22.8880   -2.8170   55.9400 H       1  UNL1        0.0288
     66 H         -25.1470   -4.7320   56.6460 H       1  UNL1        0.0281
     67 H         -24.6300   -3.2970   57.5540 H       1  UNL1        0.0281
     68 H         -26.7120   -3.1070   55.8250 H       1  UNL1        0.0465
     69 H         -25.4930   -1.8090   55.8380 H       1  UNL1        0.0465
     70 N         -22.7270   -5.7670   53.2030 N.am    1  UNL1       -0.2884
     71 O         -20.3070   -3.2630   53.8430 O.2     1  UNL1       -0.2738
     72 C         -21.3840   -5.4160   53.6970 C.3     1  UNL1        0.1025
     73 C         -20.7090   -4.1640   53.1050 C.2     1  UNL1        0.2342
     74 C         -20.4040   -6.6060   53.7150 C.3     1  UNL1       -0.0231
     75 C         -20.4900   -7.5060   52.4800 C.3     1  UNL1       -0.0403
     76 C         -19.5750   -8.7200   52.6280 C.3     1  UNL1       -0.0623
     77 C         -21.9410   -7.9410   52.2770 C.3     1  UNL1       -0.0345
     78 C         -22.8390   -6.7270   52.1050 C.3     1  UNL1        0.0158
     79 H         -21.5060   -5.1550   54.7490 H       1  UNL1        0.0597
     80 H         -20.6330   -7.2150   54.6010 H       1  UNL1        0.0290
     81 H         -19.3740   -6.2510   53.8470 H       1  UNL1        0.0290
     82 H         -20.1570   -6.9450   51.5980 H       1  UNL1        0.0299
     83 H         -19.8580   -9.3320   53.4910 H       1  UNL1        0.0232
     84 H         -19.6220   -9.3520   51.7360 H       1  UNL1        0.0232
     85 H         -18.5340   -8.4070   52.7620 H       1  UNL1        0.0232
     86 H         -22.2820   -8.5310   53.1370 H       1  UNL1        0.0283
     87 H         -22.0240   -8.5830   51.3920 H       1  UNL1        0.0283
     88 H         -23.8740   -7.0520   51.9750 H       1  UNL1        0.0465
     89 H         -22.5720   -6.1940   51.1860 H       1  UNL1        0.0465
     90 N         -20.4630   -4.1550   51.7590 N.am    1  UNL1       -0.3027
     91 C         -19.4940   -3.2320   51.1780 C.3     1  UNL1        0.0968
     92 C         -19.8250   -2.9380   49.7030 C.2     1  UNL1        0.2363
     93 O         -19.2290   -3.5040   48.7850 O.2     1  UNL1       -0.2736
     94 C         -18.0870   -3.8190   51.3050 C.3     1  UNL1       -0.0381
     95 H         -20.9520   -4.7950   51.1410 H       1  UNL1        0.1495
     96 H         -19.5020   -2.2900   51.7360 H       1  UNL1        0.0592
     97 H         -17.8140   -3.9610   52.3560 H       1  UNL1        0.0252
     98 H         -17.3440   -3.1570   50.8480 H       1  UNL1        0.0252
     99 H         -18.0160   -4.7960   50.8130 H       1  UNL1        0.0252
    100 N         -20.8280   -2.0270   49.4450 N.am    1  UNL1       -0.2865
    101 C         -21.7390   -1.3770   50.4000 C.3     1  UNL1        0.1230
    102 C         -22.9510   -2.2880   50.6770 C.2     1  UNL1        0.3282
    103 O         -22.9850   -3.4950   50.4760 O.2     1  UNL1       -0.2487
    104 C         -22.1480   -0.1140   49.6350 C.3     1  UNL1       -0.0225
    105 C         -22.2410   -0.6050   48.1920 C.3     1  UNL1       -0.0349
    106 C         -21.0880   -1.5920   48.0820 C.3     1  UNL1        0.0157
    107 H         -21.2480   -1.1520   51.3490 H       1  UNL1        0.0616
    108 H         -23.0800    0.3470   49.9720 H       1  UNL1        0.0289
    109 H         -21.3530    0.6390   49.7120 H       1  UNL1        0.0289
    110 H         -23.1950   -1.1210   48.0310 H       1  UNL1        0.0281
    111 H         -22.1690    0.2060   47.4610 H       1  UNL1        0.0281
    112 H         -21.3280   -2.4490   47.4460 H       1  UNL1        0.0465
    113 H         -20.1810   -1.1110   47.6980 H       1  UNL1        0.0465
@<TRIPOS>BOND
     1    21    10    1
     2    22    10    1
     3    10    20    1
     4    10     9    1
     5    18     9    1
     6    19     9    1
     7     9     7    1
     8    15     8    1
     9    17     8    1
    10     7     8    1
    11     7    14    1
    12     7     6    1
    13     8    16    1
    14    13     6    1
    15    12     6    1
    16     6     5    1
    17     5    11    1
    18     5     4    2
    19     1     4    1
    20     4     3    1
    21   112   106    1
    22   111   105    1
    23   113   106    1
    24     3     2    2
    25     3    24   am
    26    36    24    1
    27   110   105    1
    28   106   105    1
    29   106   100    1
    30   105   104    1
    31    27    35    1
    32    24    28    1
    33    93    92    2
    34    42    33    1
    35    35    33   ar
    36    35    31   ar
    37   100    92   am
    38   100   101    1
    39    25    23    2
    40    33    30   ar
    41   104   109    1
    42   104   108    1
    43   104   101    1
    44    92    91    1
    45    40    31    1
    46    52    47    1
    47    28    37    1
    48    28    23    1
    49    28    29    1
    50    31    34   ar
    51    54    49    1
    52    23    43   am
    53   101   102    1
    54   101   107    1
    55   103   102    2
    56    30    29    1
    57    30    32   ar
    58    39    29    1
    59   102    48    1
    60    55    49    1
    61    29    38    1
    62    99    94    1
    63    98    94    1
    64    47    49    1
    65    47    48    1
    66    47    44    1
    67    34    32   ar
    68    34    26    1
    69    49    53    1
    70    95    90    1
    71    91    94    1
    72    91    96    1
    73    91    90    1
    74    89    78    1
    75    32    41    1
    76    94    97    1
    77    43    44    1
    78    43    50    1
    79    87    77    1
    80    82    75    1
    81    84    76    1
    82    90    73   am
    83    51    44    1
    84    44    45    1
    85    88    78    1
    86    78    77    1
    87    78    70    1
    88    77    75    1
    89    77    86    1
    90    75    76    1
    91    75    74    1
    92    76    85    1
    93    76    83    1
    94    73    72    1
    95    73    71    2
    96    70    72    1
    97    70    58   am
    98    45    46    2
    99    45    56   am
   100    63    57    1
   101    59    58    2
   102    72    74    1
   103    72    79    1
   104    74    81    1
   105    74    80    1
   106    58    57    1
   107    57    56    1
   108    57    60    1
   109    56    62    1
   110    62    68    1
   111    62    69    1
   112    62    61    1
   113    60    65    1
   114    60    64    1
   115    60    61    1
   116    61    66    1
   117    61    67    1
