@<TRIPOS>MOLECULE
129.56546
 113 117 0 0 0
SMALL
GASTEIGER

@<TRIPOS>ATOM
      1 H         -21.2420   -4.0710   40.4520 H       1  UNL1        0.0666
      2 O         -22.8140   -6.8410   41.3880 O.2     1  UNL1       -0.2708
      3 C         -22.1870   -5.7940   41.4720 C.2     1  UNL1        0.2372
      4 C         -21.8500   -4.9530   40.2960 C.2     1  UNL1       -0.0038
      5 C         -22.3180   -5.2760   39.0810 C.2     1  UNL1       -0.0789
      6 C         -22.0620   -4.4710   37.8380 C.3     1  UNL1       -0.0317
      7 C         -23.3610   -3.9270   37.2070 C.3     1  UNL1       -0.0407
      8 C         -24.0500   -2.9020   38.1160 C.3     1  UNL1       -0.0621
      9 C         -23.1150   -3.3540   35.7960 C.3     1  UNL1       -0.0530
     10 C         -22.1820   -2.1520   35.7320 C.3     1  UNL1       -0.0650
     11 H         -22.9290   -6.1710   38.9600 H       1  UNL1        0.0574
     12 H         -21.5530   -5.1240   37.1180 H       1  UNL1        0.0310
     13 H         -21.3740   -3.6460   38.0570 H       1  UNL1        0.0310
     14 H         -24.0580   -4.7670   37.0810 H       1  UNL1        0.0301
     15 H         -24.9250   -2.4680   37.6200 H       1  UNL1        0.0233
     16 H         -24.4000   -3.3700   39.0420 H       1  UNL1        0.0233
     17 H         -23.3740   -2.0860   38.3910 H       1  UNL1        0.0233
     18 H         -24.0780   -3.0690   35.3560 H       1  UNL1        0.0265
     19 H         -22.7080   -4.1460   35.1560 H       1  UNL1        0.0265
     20 H         -21.1810   -2.3990   36.0980 H       1  UNL1        0.0230
     21 H         -22.0790   -1.8170   34.6950 H       1  UNL1        0.0230
     22 H         -22.5680   -1.3100   36.3130 H       1  UNL1        0.0230
     23 C         -21.9880   -4.8080   45.0200 C.2     1  UNL1        0.2344
     24 N         -21.7420   -5.2680   42.6520 N.am    1  UNL1       -0.3002
     25 O         -21.3070   -3.7910   44.9040 O.2     1  UNL1       -0.2737
     26 F         -17.0490   -6.0520   46.7430 F       1  UNL1       -0.2054
     27 F         -16.8250   -6.4910   42.0630 F       1  UNL1       -0.2054
     28 C         -22.0450   -5.8930   43.9330 C.3     1  UNL1        0.1036
     29 C         -21.1460   -7.0930   44.2730 C.3     1  UNL1       -0.0005
     30 C         -19.6640   -6.7990   44.3230 C.ar    1  UNL1       -0.0397
     31 C         -16.9020   -6.2500   44.4040 C.ar    1  UNL1        0.0088
     32 C         -19.0240   -6.5370   45.5430 C.ar    1  UNL1       -0.0230
     33 C         -18.9000   -6.7840   43.1460 C.ar    1  UNL1       -0.0230
     34 C         -17.6550   -6.2730   45.5700 C.ar    1  UNL1        0.1264
     35 C         -17.5360   -6.5060   43.1980 C.ar    1  UNL1        0.1264
     36 H         -21.2170   -4.3990   42.6870 H       1  UNL1        0.1498
     37 H         -23.0830   -6.2500   43.8800 H       1  UNL1        0.0598
     38 H         -21.4530   -7.5180   45.2390 H       1  UNL1        0.0336
     39 H         -21.3090   -7.8930   43.5390 H       1  UNL1        0.0336
     40 H         -15.8410   -6.0390   44.4380 H       1  UNL1        0.0675
     41 H         -19.5740   -6.5400   46.4810 H       1  UNL1        0.0649
     42 H         -19.3560   -6.9910   42.1810 H       1  UNL1        0.0649
     43 N         -22.7770   -5.0560   46.1150 N.am    1  UNL1       -0.2995
     44 C         -22.8620   -4.1560   47.2730 C.3     1  UNL1        0.1366
     45 C         -23.7260   -4.9150   48.2970 C.2     1  UNL1        0.2402
     46 O         -24.8100   -5.3970   47.9430 O.2     1  UNL1       -0.2734
     47 C         -23.4780   -2.7740   46.9270 C.3     1  UNL1        0.1270
     48 O         -23.6460   -1.9220   48.0880 O.3     1  UNL1       -0.4580
     49 C         -24.8510   -2.8430   46.2550 C.3     1  UNL1       -0.0254
     50 H         -23.3550   -5.8910   46.1460 H       1  UNL1        0.1496
     51 H         -21.8450   -4.0260   47.6460 H       1  UNL1        0.0632
     52 H         -22.8190   -2.2520   46.2210 H       1  UNL1        0.0755
     53 H         -25.6220   -3.2000   46.9450 H       1  UNL1        0.0266
     54 H         -25.1640   -1.8380   45.9500 H       1  UNL1        0.0266
     55 H         -24.8420   -3.4780   45.3640 H       1  UNL1        0.0266
     56 N         -23.2570   -5.1240   49.5720 N.am    1  UNL1       -0.2883
     57 C         -21.9960   -4.6690   50.1830 C.3     1  UNL1        0.1025
     58 C         -20.7540   -5.4490   49.6760 C.2     1  UNL1        0.2367
     59 O         -20.9040   -6.4050   48.9090 O.2     1  UNL1       -0.2735
     60 C         -22.2320   -4.9270   51.6800 C.3     1  UNL1       -0.0243
     61 C         -23.1400   -6.1490   51.6920 C.3     1  UNL1       -0.0350
     62 C         -24.0510   -5.9060   50.5060 C.3     1  UNL1        0.0156
     63 H         -21.8600   -3.6100   49.9620 H       1  UNL1        0.0597
     64 H         -21.3290   -5.1100   52.2660 H       1  UNL1        0.0288
     65 H         -22.7610   -4.0730   52.1220 H       1  UNL1        0.0288
     66 H         -22.5460   -7.0570   51.5320 H       1  UNL1        0.0281
     67 H         -23.6910   -6.2630   52.6300 H       1  UNL1        0.0281
     68 H         -24.3990   -6.8350   50.0450 H       1  UNL1        0.0465
     69 H         -24.9230   -5.3050   50.7880 H       1  UNL1        0.0465
     70 N         -19.4940   -5.0490   50.1190 N.am    1  UNL1       -0.2884
     71 O         -17.6320   -2.8310   49.3300 O.2     1  UNL1       -0.2738
     72 C         -19.1940   -3.8370   50.9180 C.3     1  UNL1        0.1025
     73 C         -18.5760   -2.6690   50.1050 C.2     1  UNL1        0.2342
     74 C         -18.2760   -4.1820   52.1050 C.3     1  UNL1       -0.0231
     75 C         -17.0430   -5.0040   51.6960 C.3     1  UNL1       -0.0403
     76 C         -16.2430   -5.4250   52.9280 C.3     1  UNL1       -0.0623
     77 C         -17.4660   -6.2290   50.8790 C.3     1  UNL1       -0.0345
     78 C         -18.3300   -5.8290   49.6870 C.3     1  UNL1        0.0158
     79 H         -20.1230   -3.4690   51.3440 H       1  UNL1        0.0597
     80 H         -18.8580   -4.7590   52.8360 H       1  UNL1        0.0290
     81 H         -17.9490   -3.2670   52.6140 H       1  UNL1        0.0290
     82 H         -16.3890   -4.3780   51.0750 H       1  UNL1        0.0299
     83 H         -16.8390   -6.0590   53.5930 H       1  UNL1        0.0232
     84 H         -15.3490   -5.9870   52.6360 H       1  UNL1        0.0232
     85 H         -15.9170   -4.5480   53.4970 H       1  UNL1        0.0232
     86 H         -18.0310   -6.9210   51.5170 H       1  UNL1        0.0283
     87 H         -16.5810   -6.7690   50.5230 H       1  UNL1        0.0283
     88 H         -18.6370   -6.7360   49.1570 H       1  UNL1        0.0465
     89 H         -17.7580   -5.2290   48.9760 H       1  UNL1        0.0465
     90 N         -19.0240   -1.3960   50.3020 N.am    1  UNL1       -0.3027
     91 C         -20.1840   -0.8900   51.0350 C.3     1  UNL1        0.0968
     92 C         -20.5370    0.4950   50.4480 C.2     1  UNL1        0.2363
     93 O         -19.7090    1.4100   50.4880 O.2     1  UNL1       -0.2736
     94 C         -19.8820   -0.7280   52.5210 C.3     1  UNL1       -0.0381
     95 H         -18.5120   -0.7130   49.7470 H       1  UNL1        0.1495
     96 H         -21.0050   -1.5940   50.9140 H       1  UNL1        0.0592
     97 H         -19.7000   -1.6950   52.9980 H       1  UNL1        0.0252
     98 H         -20.7240   -0.2540   53.0380 H       1  UNL1        0.0252
     99 H         -18.9950   -0.1060   52.6860 H       1  UNL1        0.0252
    100 N         -21.7580    0.6690   49.8340 N.am    1  UNL1       -0.2865
    101 C         -22.8530   -0.3000   49.6670 C.3     1  UNL1        0.1230
    102 C         -22.5260   -1.3080   48.5510 C.2     1  UNL1        0.3282
    103 O         -21.3910   -1.6180   48.2140 O.2     1  UNL1       -0.2487
    104 C         -24.0500    0.5930   49.3230 C.3     1  UNL1       -0.0225
    105 C         -23.4150    1.7300   48.5300 C.3     1  UNL1       -0.0349
    106 C         -22.1020    1.9610   49.2590 C.3     1  UNL1        0.0157
    107 H         -23.0170   -0.8560   50.5950 H       1  UNL1        0.0616
    108 H         -24.8490    0.0980   48.7640 H       1  UNL1        0.0289
    109 H         -24.4870    0.9960   50.2460 H       1  UNL1        0.0289
    110 H         -23.2240    1.4060   47.5000 H       1  UNL1        0.0281
    111 H         -24.0390    2.6270   48.4950 H       1  UNL1        0.0281
    112 H         -21.3080    2.3160   48.5950 H       1  UNL1        0.0465
    113 H         -22.2200    2.6750   50.0810 H       1  UNL1        0.0465
@<TRIPOS>BOND
     1    21    10    1
     2    19     9    1
     3    18     9    1
     4    10     9    1
     5    10    20    1
     6    10    22    1
     7     9     7    1
     8    14     7    1
     9    12     6    1
    10     7     6    1
    11     7     8    1
    12    15     8    1
    13     6    13    1
    14     6     5    1
    15     8    17    1
    16     8    16    1
    17    11     5    1
    18     5     4    2
    19     4     1    1
    20     4     3    1
    21     2     3    2
    22     3    24   am
    23    27    35    1
    24    42    33    1
    25    24    36    1
    26    24    28    1
    27    33    35   ar
    28    33    30   ar
    29    35    31   ar
    30    39    29    1
    31    37    28    1
    32    28    29    1
    33    28    23    1
    34    29    30    1
    35    29    38    1
    36    30    32   ar
    37    31    40    1
    38    31    34   ar
    39    25    23    2
    40    23    43   am
    41    55    49    1
    42    32    34   ar
    43    32    41    1
    44    34    26    1
    45    54    49    1
    46    43    50    1
    47    43    44    1
    48    52    47    1
    49    49    47    1
    50    49    53    1
    51    47    44    1
    52    47    48    1
    53    44    51    1
    54    44    45    1
    55   110   105    1
    56    46    45    2
    57    48   102    1
    58   103   102    2
    59    45    56   am
    60   111   105    1
    61   105   106    1
    62   105   104    1
    63   102   101    1
    64   112   106    1
    65   108   104    1
    66    59    58    2
    67    89    78    1
    68    88    78    1
    69   106   100    1
    70   106   113    1
    71   104   101    1
    72   104   109    1
    73    71    73    2
    74    56    57    1
    75    56    62    1
    76   101   100    1
    77   101   107    1
    78    58    70   am
    79    58    57    1
    80    78    70    1
    81    78    77    1
    82    95    90    1
    83   100    92   am
    84    63    57    1
    85    68    62    1
    86    73    90   am
    87    73    72    1
    88    70    72    1
    89    57    60    1
    90    90    91    1
    91    92    93    2
    92    92    91    1
    93    62    69    1
    94    62    61    1
    95    87    77    1
    96    77    86    1
    97    77    75    1
    98    96    91    1
    99    72    79    1
   100    72    74    1
   101    91    94    1
   102    82    75    1
   103    66    61    1
   104    60    61    1
   105    60    65    1
   106    60    64    1
   107    61    67    1
   108    75    74    1
   109    75    76    1
   110    74    81    1
   111    74    80    1
   112    94    99    1
   113    94    97    1
   114    94    98    1
   115    84    76    1
   116    76    85    1
   117    76    83    1
