@<TRIPOS>MOLECULE
107.44015
 113 117 0 0 0
SMALL
GASTEIGER

@<TRIPOS>ATOM
      1 H         -30.5230   -2.6600   47.7770 H       1  UNL1        0.0666
      2 O         -30.2410   -3.2070   51.0400 O.2     1  UNL1       -0.2708
      3 C         -30.1300   -3.3760   49.8310 C.2     1  UNL1        0.2372
      4 C         -30.6990   -2.4470   48.8250 C.2     1  UNL1       -0.0038
      5 C         -31.4240   -1.3880   49.2160 C.2     1  UNL1       -0.0789
      6 C         -32.0590   -0.4070   48.2700 C.3     1  UNL1       -0.0317
      7 C         -31.6340    1.0530   48.5320 C.3     1  UNL1       -0.0407
      8 C         -30.1210    1.2350   48.3570 C.3     1  UNL1       -0.0621
      9 C         -32.3670    2.0400   47.6000 C.3     1  UNL1       -0.0530
     10 C         -33.8730    2.0930   47.8220 C.3     1  UNL1       -0.0650
     11 H         -31.5970   -1.2170   50.2780 H       1  UNL1        0.0574
     12 H         -33.1430   -0.5060   48.3940 H       1  UNL1        0.0310
     13 H         -31.8360   -0.6750   47.2290 H       1  UNL1        0.0310
     14 H         -31.8830    1.3130   49.5700 H       1  UNL1        0.0301
     15 H         -29.8320    2.2790   48.5230 H       1  UNL1        0.0233
     16 H         -29.5590    0.6280   49.0740 H       1  UNL1        0.0233
     17 H         -29.8040    0.9540   47.3470 H       1  UNL1        0.0233
     18 H         -32.1670    1.7870   46.5520 H       1  UNL1        0.0265
     19 H         -31.9690    3.0490   47.7620 H       1  UNL1        0.0265
     20 H         -34.1090    2.2880   48.8730 H       1  UNL1        0.0230
     21 H         -34.3110    2.8970   47.2220 H       1  UNL1        0.0230
     22 H         -34.3580    1.1600   47.5230 H       1  UNL1        0.0230
     23 C         -27.4140   -4.9990   50.4080 C.2     1  UNL1        0.2344
     24 N         -29.4450   -4.4220   49.2740 N.am    1  UNL1       -0.3002
     25 O         -26.4310   -5.4380   49.8140 O.2     1  UNL1       -0.2737
     26 F         -32.8090   -9.1750   51.0010 F       1  UNL1       -0.2054
     27 F         -32.7310   -7.6160   46.5590 F       1  UNL1       -0.2054
     28 C         -28.8460   -5.4630   50.1080 C.3     1  UNL1        0.1036
     29 C         -28.8300   -6.8240   49.3990 C.3     1  UNL1       -0.0005
     30 C         -30.2140   -7.3910   49.1780 C.ar    1  UNL1       -0.0397
     31 C         -32.8070   -8.4110   48.7740 C.ar    1  UNL1        0.0088
     32 C         -30.8920   -8.0460   50.2150 C.ar    1  UNL1       -0.0230
     33 C         -30.8520   -7.2500   47.9370 C.ar    1  UNL1       -0.0230
     34 C         -32.1750   -8.5480   50.0020 C.ar    1  UNL1        0.1264
     35 C         -32.1360   -7.7600   47.7500 C.ar    1  UNL1        0.1264
     36 H         -29.1680   -4.3790   48.2940 H       1  UNL1        0.1498
     37 H         -29.3920   -5.5360   51.0570 H       1  UNL1        0.0598
     38 H         -28.3150   -6.7480   48.4320 H       1  UNL1        0.0336
     39 H         -28.2460   -7.5470   49.9850 H       1  UNL1        0.0336
     40 H         -33.8040   -8.8040   48.6200 H       1  UNL1        0.0675
     41 H         -30.4360   -8.1730   51.1930 H       1  UNL1        0.0649
     42 H         -30.3640   -6.7430   47.1090 H       1  UNL1        0.0649
     43 N         -27.3270   -3.9620   51.3060 N.am    1  UNL1       -0.2995
     44 C         -26.0620   -3.3000   51.6350 C.3     1  UNL1        0.1366
     45 C         -25.6940   -3.6220   53.0880 C.2     1  UNL1        0.2402
     46 O         -26.4750   -3.3610   54.0070 O.2     1  UNL1       -0.2734
     47 C         -26.1660   -1.7840   51.3750 C.3     1  UNL1        0.1270
     48 O         -26.0690   -1.5490   49.9390 O.3     1  UNL1       -0.4580
     49 C         -25.2080   -0.8880   52.1610 C.3     1  UNL1       -0.0254
     50 H         -28.1780   -3.6530   51.7790 H       1  UNL1        0.1496
     51 H         -25.3190   -3.7120   50.9580 H       1  UNL1        0.0632
     52 H         -27.1790   -1.4500   51.6350 H       1  UNL1        0.0755
     53 H         -24.1790   -1.2580   52.1390 H       1  UNL1        0.0266
     54 H         -25.2010    0.1250   51.7470 H       1  UNL1        0.0266
     55 H         -25.5080   -0.8250   53.2120 H       1  UNL1        0.0266
     56 N         -24.4640   -4.2050   53.3170 N.am    1  UNL1       -0.2883
     57 C         -23.4470   -4.5590   52.3160 C.3     1  UNL1        0.1025
     58 C         -23.8120   -5.8710   51.5680 C.2     1  UNL1        0.2367
     59 O         -24.4750   -6.7390   52.1460 O.2     1  UNL1       -0.2735
     60 C         -22.1800   -4.7680   53.1470 C.3     1  UNL1       -0.0243
     61 C         -22.7160   -5.2830   54.4810 C.3     1  UNL1       -0.0350
     62 C         -24.0180   -4.5170   54.6620 C.3     1  UNL1        0.0156
     63 H         -23.3360   -3.7200   51.6340 H       1  UNL1        0.0597
     64 H         -21.4630   -5.4590   52.6950 H       1  UNL1        0.0288
     65 H         -21.6780   -3.8050   53.3050 H       1  UNL1        0.0288
     66 H         -22.9170   -6.3580   54.4130 H       1  UNL1        0.0281
     67 H         -22.0180   -5.1230   55.3090 H       1  UNL1        0.0281
     68 H         -24.7790   -5.0920   55.1990 H       1  UNL1        0.0465
     69 H         -23.8560   -3.5710   55.1900 H       1  UNL1        0.0465
     70 N         -23.3140   -6.0830   50.2850 N.am    1  UNL1       -0.2884
     71 O         -22.5090   -4.2640   47.1990 O.2     1  UNL1       -0.2738
     72 C         -22.5040   -5.1420   49.4810 C.3     1  UNL1        0.1025
     73 C         -23.1680   -4.6970   48.1440 C.2     1  UNL1        0.2342
     74 C         -21.1190   -5.7640   49.2260 C.3     1  UNL1       -0.0231
     75 C         -21.2260   -7.1650   48.5960 C.3     1  UNL1       -0.0403
     76 C         -19.8430   -7.7950   48.4420 C.3     1  UNL1       -0.0623
     77 C         -22.1430   -8.0660   49.4370 C.3     1  UNL1       -0.0345
     78 C         -23.4990   -7.4050   49.6780 C.3     1  UNL1        0.0158
     79 H         -22.3410   -4.2160   50.0320 H       1  UNL1        0.0597
     80 H         -20.5880   -5.8420   50.1840 H       1  UNL1        0.0290
     81 H         -20.5140   -5.1130   48.5840 H       1  UNL1        0.0290
     82 H         -21.6620   -7.0670   47.5930 H       1  UNL1        0.0299
     83 H         -19.3520   -7.9210   49.4130 H       1  UNL1        0.0232
     84 H         -19.9160   -8.7800   47.9690 H       1  UNL1        0.0232
     85 H         -19.1990   -7.1680   47.8160 H       1  UNL1        0.0232
     86 H         -21.6680   -8.2760   50.4040 H       1  UNL1        0.0283
     87 H         -22.2890   -9.0290   48.9340 H       1  UNL1        0.0283
     88 H         -24.1110   -8.0570   50.3070 H       1  UNL1        0.0465
     89 H         -24.0360   -7.2840   48.7310 H       1  UNL1        0.0465
     90 N         -24.5450   -4.6730   48.1250 N.am    1  UNL1       -0.3027
     91 C         -25.3100   -4.4480   46.9000 C.3     1  UNL1        0.0968
     92 C         -26.5490   -3.5270   47.0910 C.2     1  UNL1        0.2363
     93 O         -27.7060   -3.9460   46.9650 O.2     1  UNL1       -0.2736
     94 C         -25.7200   -5.7970   46.3100 C.3     1  UNL1       -0.0381
     95 H         -25.0600   -5.0410   48.9320 H       1  UNL1        0.1495
     96 H         -24.6670   -3.9590   46.1580 H       1  UNL1        0.0592
     97 H         -24.8390   -6.4110   46.0910 H       1  UNL1        0.0252
     98 H         -26.2830   -5.6660   45.3800 H       1  UNL1        0.0252
     99 H         -26.3490   -6.3610   47.0070 H       1  UNL1        0.0252
    100 N         -26.3070   -2.1850   47.3180 N.am    1  UNL1       -0.2865
    101 C         -25.0480   -1.5830   47.7630 C.3     1  UNL1        0.1230
    102 C         -24.8800   -1.7050   49.2880 C.2     1  UNL1        0.3282
    103 O         -23.7980   -1.8560   49.8420 O.2     1  UNL1       -0.2487
    104 C         -25.1890   -0.1200   47.3500 C.3     1  UNL1       -0.0225
    105 C         -26.6870    0.1520   47.4790 C.3     1  UNL1       -0.0349
    106 C         -27.3430   -1.1820   47.1460 C.3     1  UNL1        0.0157
    107 H         -24.1910   -2.0560   47.2790 H       1  UNL1        0.0616
    108 H         -24.5910    0.5670   47.9550 H       1  UNL1        0.0289
    109 H         -24.8920   -0.0030   46.3000 H       1  UNL1        0.0289
    110 H         -26.9290    0.4480   48.5060 H       1  UNL1        0.0281
    111 H         -27.0250    0.9570   46.8200 H       1  UNL1        0.0281
    112 H         -28.1910   -1.4010   47.7990 H       1  UNL1        0.0465
    113 H         -27.6850   -1.2180   46.1060 H       1  UNL1        0.0465
@<TRIPOS>BOND
     1    98    94    1
     2    97    94    1
     3   113   106    1
     4    96    91    1
     5   109   104    1
     6    94    91    1
     7    94    99    1
     8    18     9    1
     9    27    35    1
    10   111   105    1
    11    91    92    1
    12    91    90    1
    13    93    92    2
    14    92   100   am
    15    42    33    1
    16   106   100    1
    17   106   105    1
    18   106   112    1
    19    71    73    2
    20    21    10    1
    21    13     6    1
    22   107   101    1
    23   100   101    1
    24    17     8    1
    25   104   105    1
    26   104   101    1
    27   104   108    1
    28   105   110    1
    29    22    10    1
    30    82    75    1
    31     9    19    1
    32     9    10    1
    33     9     7    1
    34    35    33   ar
    35    35    31   ar
    36   101   102    1
    37     1     4    1
    38    85    76    1
    39    10    20    1
    40    33    30   ar
    41    84    76    1
    42    90    73   am
    43    90    95    1
    44    73    72    1
    45     6    12    1
    46     6     7    1
    47     6     5    1
    48    36    24    1
    49     8    15    1
    50     8     7    1
    51     8    16    1
    52    38    29    1
    53    76    75    1
    54    76    83    1
    55     7    14    1
    56    81    74    1
    57    75    74    1
    58    75    77    1
    59    40    31    1
    60    89    78    1
    61    31    34   ar
    62     4     5    2
    63     4     3    1
    64    87    77    1
    65    30    29    1
    66    30    32   ar
    67     5    11    1
    68    74    72    1
    69    74    80    1
    70    24     3   am
    71    24    28    1
    72   102   103    2
    73   102    48    1
    74    29    39    1
    75    29    28    1
    76    77    78    1
    77    77    86    1
    78    72    79    1
    79    72    70    1
    80    78    70    1
    81    78    88    1
    82    25    23    2
    83     3     2    2
    84    48    47    1
    85    34    32   ar
    86    34    26    1
    87    28    23    1
    88    28    37    1
    89    32    41    1
    90    70    58   am
    91    23    43   am
    92    51    44    1
    93    43    44    1
    94    43    50    1
    95    47    52    1
    96    47    44    1
    97    47    49    1
    98    58    59    2
    99    58    57    1
   100    63    57    1
   101    44    45    1
   102    54    49    1
   103    53    49    1
   104    49    55    1
   105    57    60    1
   106    57    56    1
   107    64    60    1
   108    45    56   am
   109    45    46    2
   110    60    65    1
   111    60    61    1
   112    56    62    1
   113    66    61    1
   114    61    62    1
   115    61    67    1
   116    62    69    1
   117    62    68    1
