@<TRIPOS>MOLECULE
151.53142
 66 70 0 0 0
SMALL
GASTEIGER

@<TRIPOS>ATOM
      1 H          -3.3250   11.4790   26.4410 H       1  UNL1        0.1453
      2 H           7.5250    8.9880   23.0650 H       1  UNL1        0.0278
      3 H           6.7730   13.5590   22.1380 H       1  UNL1        0.0350
      4 H           3.6970   13.6040   24.5120 H       1  UNL1        0.0333
      5 H           6.2930   13.2000   25.9500 H       1  UNL1        0.0235
      6 H           5.2830   15.5270   22.4190 H       1  UNL1        0.0235
      7 H           1.9980   11.6210   22.4480 H       1  UNL1        0.0638
      8 H          -0.4220   11.8550   22.8620 H       1  UNL1        0.0626
      9 H           2.6140   10.7530   26.6240 H       1  UNL1        0.0657
     10 H           0.7090   10.4430   28.0190 H       1  UNL1        0.1461
     11 H          -0.5460    8.7080   25.9500 H       1  UNL1        0.0476
     12 H           1.5780    8.3210   27.9130 H       1  UNL1        0.0478
     13 H          -0.7380    7.6850   29.3110 H       1  UNL1        0.0281
     14 H          -1.4310    5.9380   27.7670 H       1  UNL1        0.0278
     15 H           0.2510    4.7330   26.4920 H       1  UNL1        0.0427
     16 H           2.1380    6.0640   25.0480 H       1  UNL1        0.0427
     17 H           2.8600    8.7160   26.2820 H       1  UNL1        0.0281
     18 H           4.5270    7.5090   24.7910 H       1  UNL1        0.0328
     19 H          -1.7240   11.2610   27.1350 H       1  UNL1        0.1453
     20 H           7.4840    8.7980   24.8320 H       1  UNL1        0.0278
     21 H           7.8760   14.0030   23.4490 H       1  UNL1        0.0350
     22 H           4.0660   13.4450   22.7910 H       1  UNL1        0.0333
     23 H           5.3010   14.6550   26.0710 H       1  UNL1        0.0235
     24 H           6.4180   16.1500   23.6240 H       1  UNL1        0.0235
     25 H          -1.3300    8.8110   27.5050 H       1  UNL1        0.0476
     26 H           0.8420    6.9250   29.5310 H       1  UNL1        0.0281
     27 H          -0.5460    5.0390   29.0200 H       1  UNL1        0.0278
     28 H           1.4910    5.0610   27.7280 H       1  UNL1        0.0427
     29 H           2.9860    6.3880   26.5660 H       1  UNL1        0.0427
     30 H           1.7210    8.5680   24.8920 H       1  UNL1        0.0281
     31 H           3.4600    7.8790   23.4440 H       1  UNL1        0.0328
     32 H           4.6980   16.0070   24.0190 H       1  UNL1        0.0235
     33 H           6.4790    7.7770   23.7880 H       1  UNL1        0.0278
     34 H           7.0160   14.7850   25.6630 H       1  UNL1        0.0235
     35 C           6.8750    8.7870   23.9230 C.3     1  UNL1       -0.0373
     36 C           5.7910    9.8100   24.0190 C.ar    1  UNL1       -0.0186
     37 C           4.4350    9.5900   24.2900 C.ar    1  UNL1        0.0277
     38 N           3.8010   10.8430   24.2640 N.ar    1  UNL1       -0.3161
     39 C           4.7350   11.8050   23.9400 C.ar    1  UNL1        0.0353
     40 C           5.9690   11.2050   23.8100 C.ar    1  UNL1        0.0416
     41 C           7.1650   11.9870   23.5080 C.2     1  UNL1        0.1657
     42 O           8.2820   11.4830   23.4260 O.2     1  UNL1       -0.2920
     43 C           6.9460   13.4700   23.2190 C.3     1  UNL1        0.0160
     44 C           5.7640   14.0960   24.0050 C.3     1  UNL1       -0.0225
     45 C           4.4610   13.2710   23.8000 C.3     1  UNL1       -0.0057
     46 C           6.1130   14.1840   25.5060 C.3     1  UNL1       -0.0591
     47 C           5.5270   15.5270   23.4870 C.3     1  UNL1       -0.0591
     48 C           2.4400   11.1360   24.5130 C.ar    1  UNL1        0.0484
     49 C           1.6080   11.4810   23.4520 C.ar    1  UNL1       -0.0370
     50 C           0.2370   11.5900   23.6870 C.ar    1  UNL1       -0.0459
     51 C          -0.3070   11.2950   24.9540 C.ar    1  UNL1        0.0574
     52 C           0.5480   10.9440   26.0270 C.ar    1  UNL1        0.0414
     53 C           1.9330   10.9830   25.8080 C.ar    1  UNL1       -0.0162
     54 N           0.1070   10.3050   27.2110 N.pl3   1  UNL1       -0.3417
     55 C          -0.3550    8.9050   27.0130 C.3     1  UNL1        0.0247
     56 C           0.6500    7.8430   27.5800 C.3     1  UNL1        0.0259
     57 C           0.0490    7.1240   28.7990 C.3     1  UNL1       -0.0347
     58 C          -0.4530    5.8060   28.2450 C.3     1  UNL1       -0.0387
     59 C           0.6080    5.4680   27.2190 C.3     1  UNL1       -0.0007
     60 N           0.8930    6.7610   26.5890 N.3     1  UNL1       -0.2979
     61 C           2.1960    6.7550   25.8980 C.3     1  UNL1       -0.0004
     62 C           2.5920    8.1410   25.3950 C.3     1  UNL1       -0.0348
     63 C           3.7700    8.2200   24.4400 C.3     1  UNL1       -0.0105
     64 C          -1.7950   11.3970   25.0720 C.2     1  UNL1        0.2433
     65 O          -2.5190   11.5120   24.0900 O.2     1  UNL1       -0.2704
     66 N          -2.3250   11.3970   26.3290 N.am    1  UNL1       -0.3253
@<TRIPOS>BOND
     1     3    43    1
     2     6    47    1
     3     7    49    1
     4    22    45    1
     5     8    50    1
     6     2    35    1
     7    43    21    1
     8    43    41    1
     9    43    44    1
    10    42    41    2
    11    31    63    1
    12    49    50   ar
    13    49    48   ar
    14    47    24    1
    15    47    44    1
    16    47    32    1
    17    41    40    1
    18    50    51   ar
    19    33    35    1
    20    45    39    1
    21    45    44    1
    22    45     4    1
    23    40    39   ar
    24    40    36   ar
    25    35    36    1
    26    35    20    1
    27    39    38   ar
    28    44    46    1
    29    36    37   ar
    30    65    64    2
    31    38    37   ar
    32    38    48    1
    33    37    63    1
    34    63    18    1
    35    63    62    1
    36    48    53   ar
    37    30    62    1
    38    51    64    1
    39    51    52   ar
    40    16    61    1
    41    64    66   am
    42    62    61    1
    43    62    17    1
    44    46    34    1
    45    46     5    1
    46    46    23    1
    47    53    52   ar
    48    53     9    1
    49    61    29    1
    50    61    60    1
    51    11    55    1
    52    52    54    1
    53    66     1    1
    54    66    19    1
    55    15    59    1
    56    60    59    1
    57    60    56    1
    58    55    54    1
    59    55    25    1
    60    55    56    1
    61    54    10    1
    62    59    28    1
    63    59    58    1
    64    56    12    1
    65    56    57    1
    66    14    58    1
    67    58    57    1
    68    58    27    1
    69    57    13    1
    70    57    26    1
