@<TRIPOS>MOLECULE
139.90101
 66 70 0 0 0
SMALL
GASTEIGER

@<TRIPOS>ATOM
      1 H          -3.6850   12.1410   24.9600 H       1  UNL1        0.1453
      2 H           7.4920    9.8140   25.4250 H       1  UNL1        0.0278
      3 H           6.8810   12.9030   21.4980 H       1  UNL1        0.0350
      4 H           3.4160   13.9170   22.8640 H       1  UNL1        0.0333
      5 H           5.7570   15.0950   24.4650 H       1  UNL1        0.0235
      6 H           5.1890   14.2000   20.2480 H       1  UNL1        0.0235
      7 H           2.5720   14.2260   24.8770 H       1  UNL1        0.0638
      8 H           0.1620   14.6100   25.1020 H       1  UNL1        0.0626
      9 H           1.8640    9.9750   24.7820 H       1  UNL1        0.0657
     10 H          -0.1580    9.1740   25.2820 H       1  UNL1        0.1461
     11 H          -1.3380    8.9390   27.1490 H       1  UNL1        0.0476
     12 H          -0.1160   11.6070   28.0180 H       1  UNL1        0.0478
     13 H          -1.7690   10.0720   29.5010 H       1  UNL1        0.0281
     14 H          -0.5960    7.9730   29.1520 H       1  UNL1        0.0278
     15 H           1.7260    7.9750   28.7120 H       1  UNL1        0.0427
     16 H           2.1950   11.4210   29.2210 H       1  UNL1        0.0427
     17 H           3.9630    9.7710   28.7020 H       1  UNL1        0.0281
     18 H           4.7520    9.1920   26.6910 H       1  UNL1        0.0328
     19 H          -2.3900   11.0110   24.6080 H       1  UNL1        0.1453
     20 H           7.8340   11.3540   26.2450 H       1  UNL1        0.0278
     21 H           7.6800   14.2910   22.2530 H       1  UNL1        0.0350
     22 H           4.1760   12.6770   21.8860 H       1  UNL1        0.0333
     23 H           4.6130   16.0180   23.4860 H       1  UNL1        0.0235
     24 H           6.0360   15.6660   20.7620 H       1  UNL1        0.0235
     25 H          -2.0370   10.5310   27.0300 H       1  UNL1        0.0476
     26 H          -0.3280   10.8150   30.2210 H       1  UNL1        0.0281
     27 H          -0.0290    8.4850   30.7520 H       1  UNL1        0.0278
     28 H           2.0200    9.2340   29.9190 H       1  UNL1        0.0427
     29 H           2.0540   11.8270   27.5330 H       1  UNL1        0.0427
     30 H           4.3830   11.3830   28.1670 H       1  UNL1        0.0281
     31 H           3.1370    9.4020   26.1850 H       1  UNL1        0.0328
     32 H           4.2910   15.5130   21.0230 H       1  UNL1        0.0235
     33 H           6.7770   10.1770   27.0080 H       1  UNL1        0.0278
     34 H           6.3510   16.1840   23.2080 H       1  UNL1        0.0235
     35 C           7.0600   10.6070   26.0430 C.3     1  UNL1       -0.0373
     36 C           5.8930   11.2260   25.3460 C.ar    1  UNL1       -0.0186
     37 C           4.5380   10.9660   25.5710 C.ar    1  UNL1        0.0277
     38 N           3.7940   11.8310   24.7540 N.ar    1  UNL1       -0.3161
     39 C           4.6850   12.4970   23.9240 C.ar    1  UNL1        0.0353
     40 C           5.9750   12.1620   24.2840 C.ar    1  UNL1        0.0416
     41 C           7.1360   12.7160   23.5910 C.2     1  UNL1        0.1657
     42 O           8.2910   12.4480   23.9180 O.2     1  UNL1       -0.2920
     43 C           6.8550   13.5770   22.3640 C.3     1  UNL1        0.0160
     44 C           5.5010   14.3300   22.4120 C.3     1  UNL1       -0.0225
     45 C           4.3400   13.3510   22.7380 C.3     1  UNL1       -0.0057
     46 C           5.5600   15.4670   23.4540 C.3     1  UNL1       -0.0591
     47 C           5.2390   14.9630   21.0320 C.3     1  UNL1       -0.0591
     48 C           2.3910   12.0610   24.7960 C.ar    1  UNL1        0.0484
     49 C           1.9040   13.3680   24.8830 C.ar    1  UNL1       -0.0370
     50 C           0.5350   13.5880   25.0510 C.ar    1  UNL1       -0.0459
     51 C          -0.3540   12.5100   25.1970 C.ar    1  UNL1        0.0574
     52 C           0.1360   11.1900   25.1660 C.ar    1  UNL1        0.0414
     53 C           1.5000   10.9920   24.8800 C.ar    1  UNL1       -0.0162
     54 N          -0.5730   10.0540   25.5790 N.pl3   1  UNL1       -0.3417
     55 C          -1.0870    9.9900   26.9620 C.3     1  UNL1        0.0247
     56 C          -0.1320   10.5120   28.0850 C.3     1  UNL1        0.0259
     57 C          -0.6760   10.1090   29.4570 C.3     1  UNL1       -0.0347
     58 C          -0.0470    8.7530   29.6920 C.3     1  UNL1       -0.0387
     59 C           1.3460    8.9210   29.1120 C.3     1  UNL1       -0.0007
     60 N           1.2440    9.9330   28.0410 N.3     1  UNL1       -0.2979
     61 C           2.2620   10.9950   28.2100 C.3     1  UNL1       -0.0004
     62 C           3.7100   10.5410   27.9620 C.3     1  UNL1       -0.0348
     63 C           3.9840    9.9680   26.5680 C.3     1  UNL1       -0.0105
     64 C          -1.7960   12.8590   25.3350 C.2     1  UNL1        0.2433
     65 O          -2.1620   13.9460   25.7650 O.2     1  UNL1       -0.2704
     66 N          -2.7000   11.9290   24.9090 N.am    1  UNL1       -0.3253
@<TRIPOS>BOND
     1     6    47    1
     2    24    47    1
     3    32    47    1
     4    47    44    1
     5     3    43    1
     6    22    45    1
     7    21    43    1
     8    43    44    1
     9    43    41    1
    10    44    45    1
    11    44    46    1
    12    45     4    1
    13    45    39    1
    14    34    46    1
    15    46    23    1
    16    46     5    1
    17    41    42    2
    18    41    40    1
    19    39    40   ar
    20    39    38   ar
    21    40    36   ar
    22    19    66    1
    23    38    48    1
    24    38    37   ar
    25     9    53    1
    26    48    53   ar
    27    48    49   ar
    28     7    49    1
    29    53    52   ar
    30    49    50   ar
    31    66     1    1
    32    66    64   am
    33    50     8    1
    34    50    51   ar
    35    52    51   ar
    36    52    54    1
    37    51    64    1
    38    10    54    1
    39    64    65    2
    40    36    37   ar
    41    36    35    1
    42     2    35    1
    43    37    63    1
    44    54    55    1
    45    35    20    1
    46    35    33    1
    47    31    63    1
    48    63    18    1
    49    63    62    1
    50    55    25    1
    51    55    11    1
    52    55    56    1
    53    29    61    1
    54    62    30    1
    55    62    61    1
    56    62    17    1
    57    12    56    1
    58    60    56    1
    59    60    61    1
    60    60    59    1
    61    56    57    1
    62    61    16    1
    63    15    59    1
    64    59    58    1
    65    59    28    1
    66    14    58    1
    67    57    13    1
    68    57    58    1
    69    57    26    1
    70    58    27    1
