@<TRIPOS>MOLECULE
140.66804
 66 70 0 0 0
SMALL
GASTEIGER

@<TRIPOS>ATOM
      1 H          -2.9370   11.0430   27.0980 H       1  UNL1        0.1453
      2 H           7.7020    9.6400   22.3910 H       1  UNL1        0.0278
      3 H           6.1950   14.1490   21.7550 H       1  UNL1        0.0350
      4 H           3.7800   13.7620   24.7500 H       1  UNL1        0.0333
      5 H           6.6890   13.4810   25.5260 H       1  UNL1        0.0235
      6 H           4.6940   15.9570   22.5590 H       1  UNL1        0.0235
      7 H           2.0880   12.3590   23.0510 H       1  UNL1        0.0638
      8 H          -0.2730   12.4190   23.6440 H       1  UNL1        0.0626
      9 H           2.8630    9.8410   26.4640 H       1  UNL1        0.0657
     10 H           1.1020    8.9310   27.6210 H       1  UNL1        0.1461
     11 H          -1.0710    8.5160   25.5830 H       1  UNL1        0.0476
     12 H           0.7440    6.4990   27.0430 H       1  UNL1        0.0478
     13 H          -1.8460    6.0410   25.9960 H       1  UNL1        0.0281
     14 H          -1.2030    6.3890   23.7050 H       1  UNL1        0.0278
     15 H           1.1110    6.0870   23.0350 H       1  UNL1        0.0427
     16 H           2.9990    6.0860   25.5120 H       1  UNL1        0.0427
     17 H           2.6600    8.5630   23.7610 H       1  UNL1        0.0281
     18 H           4.4700    8.6310   25.9570 H       1  UNL1        0.0328
     19 H          -1.3070   10.5740   27.5550 H       1  UNL1        0.1453
     20 H           7.9370    9.3380   24.1270 H       1  UNL1        0.0278
     21 H           7.5520   14.6030   22.7980 H       1  UNL1        0.0350
     22 H           3.7900   13.7430   22.9760 H       1  UNL1        0.0333
     23 H           5.6470   14.8220   26.0080 H       1  UNL1        0.0235
     24 H           6.0380   16.5890   23.5200 H       1  UNL1        0.0235
     25 H          -1.2440    8.0010   27.2530 H       1  UNL1        0.0476
     26 H          -0.5710    4.8340   26.2350 H       1  UNL1        0.0281
     27 H          -0.9560    4.6380   23.8890 H       1  UNL1        0.0278
     28 H           1.3960    4.9320   24.3620 H       1  UNL1        0.0427
     29 H           2.6200    7.5950   26.2920 H       1  UNL1        0.0427
     30 H           3.6330    7.1490   23.4670 H       1  UNL1        0.0281
     31 H           5.3950    7.8480   24.7380 H       1  UNL1        0.0328
     32 H           4.4770   16.2620   24.2880 H       1  UNL1        0.0235
     33 H           6.8720    8.3000   23.1560 H       1  UNL1        0.0278
     34 H           7.2000   15.1440   25.2260 H       1  UNL1        0.0235
     35 C           7.2040    9.3300   23.3140 C.3     1  UNL1       -0.0373
     36 C           6.0600   10.2310   23.6430 C.ar    1  UNL1       -0.0186
     37 C           4.8770    9.8870   24.3010 C.ar    1  UNL1        0.0277
     38 N           4.0470   11.0230   24.3350 N.ar    1  UNL1       -0.3161
     39 C           4.7930   12.0900   23.8450 C.ar    1  UNL1        0.0353
     40 C           6.0150   11.6270   23.3970 C.ar    1  UNL1        0.0416
     41 C           7.0240   12.5330   22.8510 C.2     1  UNL1        0.1657
     42 O           8.1160   12.1420   22.4440 O.2     1  UNL1       -0.2920
     43 C           6.6350   14.0040   22.7500 C.3     1  UNL1        0.0160
     44 C           5.6420   14.4610   23.8490 C.3     1  UNL1       -0.0225
     45 C           4.3920   13.5370   23.8690 C.3     1  UNL1       -0.0057
     46 C           6.3340   14.4730   25.2280 C.3     1  UNL1       -0.0591
     47 C           5.1870   15.9000   23.5360 C.3     1  UNL1       -0.0591
     48 C           2.6700   11.0990   24.7270 C.ar    1  UNL1        0.0484
     49 C           1.7710   11.8280   23.9430 C.ar    1  UNL1       -0.0370
     50 C           0.4100   11.8280   24.2520 C.ar    1  UNL1       -0.0459
     51 C          -0.0870   11.0530   25.3120 C.ar    1  UNL1        0.0574
     52 C           0.7950   10.2560   26.0730 C.ar    1  UNL1        0.0414
     53 C           2.1770   10.3690   25.8140 C.ar    1  UNL1       -0.0162
     54 N           0.3900    9.2550   26.9750 N.pl3   1  UNL1       -0.3417
     55 C          -0.5050    8.1920   26.4650 C.3     1  UNL1        0.0247
     56 C           0.2180    6.8480   26.1450 C.3     1  UNL1        0.0259
     57 C          -0.8140    5.7830   25.7400 C.3     1  UNL1       -0.0347
     58 C          -0.6320    5.6220   24.2420 C.3     1  UNL1       -0.0387
     59 C           0.8550    5.8410   24.0700 C.3     1  UNL1       -0.0007
     60 N           1.1250    6.9540   24.9800 N.3     1  UNL1       -0.2979
     61 C           2.5370    7.0670   25.3370 C.3     1  UNL1       -0.0004
     62 C           3.3150    7.8400   24.2590 C.3     1  UNL1       -0.0348
     63 C           4.5430    8.5260   24.8700 C.3     1  UNL1       -0.0105
     64 C          -1.5470   11.1950   25.5930 C.2     1  UNL1        0.2433
     65 O          -2.3400   11.5860   24.7450 O.2     1  UNL1       -0.2704
     66 N          -1.9620   10.9270   26.8660 N.am    1  UNL1       -0.3253
@<TRIPOS>BOND
     1     3    43    1
     2     2    35    1
     3    42    41    2
     4     6    47    1
     5    43    21    1
     6    43    41    1
     7    43    44    1
     8    41    40    1
     9    22    45    1
    10    15    59    1
    11     7    49    1
    12    33    35    1
    13    35    36    1
    14    35    20    1
    15    40    36   ar
    16    40    39   ar
    17    30    62    1
    18    24    47    1
    19    47    44    1
    20    47    32    1
    21    36    37   ar
    22     8    50    1
    23    14    58    1
    24    17    62    1
    25    39    45    1
    26    39    38   ar
    27    44    45    1
    28    44    46    1
    29    45     4    1
    30    27    58    1
    31    49    50   ar
    32    49    48   ar
    33    59    58    1
    34    59    28    1
    35    59    60    1
    36    58    57    1
    37    50    51   ar
    38    62    63    1
    39    62    61    1
    40    37    38   ar
    41    37    63    1
    42    38    48    1
    43    48    53   ar
    44    31    63    1
    45    65    64    2
    46    63    18    1
    47    60    61    1
    48    60    56    1
    49    34    46    1
    50    46     5    1
    51    46    23    1
    52    51    64    1
    53    51    52   ar
    54    61    16    1
    55    61    29    1
    56    11    55    1
    57    64    66   am
    58    57    13    1
    59    57    56    1
    60    57    26    1
    61    53    52   ar
    62    53     9    1
    63    52    54    1
    64    56    55    1
    65    56    12    1
    66    55    54    1
    67    55    25    1
    68    66     1    1
    69    66    19    1
    70    54    10    1
