@<TRIPOS>MOLECULE
152.53538
 66 70 0 0 0
SMALL
GASTEIGER

@<TRIPOS>ATOM
      1 H          -2.2320   10.0480   29.0330 H       1  UNL1        0.1453
      2 H           5.7180   11.1370   20.6780 H       1  UNL1        0.0278
      3 H           7.9650    9.2520   24.4650 H       1  UNL1        0.0350
      4 H           4.5510    8.3300   26.0640 H       1  UNL1        0.0333
      5 H           5.1210    6.8250   23.5140 H       1  UNL1        0.0235
      6 H           7.7250    8.2090   26.7100 H       1  UNL1        0.0235
      7 H           3.3050   12.2060   26.0270 H       1  UNL1        0.0638
      8 H           1.4810   12.4540   27.6730 H       1  UNL1        0.0626
      9 H           1.7360    8.3600   24.8750 H       1  UNL1        0.0657
     10 H          -0.3900    7.6940   25.7330 H       1  UNL1        0.1461
     11 H          -1.5130   10.4250   25.2600 H       1  UNL1        0.0476
     12 H          -0.6530    8.3320   23.4600 H       1  UNL1        0.0478
     13 H          -3.2030    7.4970   24.1820 H       1  UNL1        0.0281
     14 H          -4.3150    9.4860   23.3410 H       1  UNL1        0.0278
     15 H          -3.3050   10.7490   21.5270 H       1  UNL1        0.0427
     16 H          -0.7000   11.6090   21.7380 H       1  UNL1        0.0427
     17 H           0.9900    9.5370   23.1240 H       1  UNL1        0.0281
     18 H           1.9760   11.3160   21.4100 H       1  UNL1        0.0328
     19 H          -1.4190    9.0020   27.8780 H       1  UNL1        0.1453
     20 H           4.4890    9.9600   20.1620 H       1  UNL1        0.0278
     21 H           8.0490    7.7200   23.5820 H       1  UNL1        0.0350
     22 H           5.7820    9.5950   26.1430 H       1  UNL1        0.0333
     23 H           5.0590    6.0950   25.1200 H       1  UNL1        0.0235
     24 H           7.9770    6.6330   25.9460 H       1  UNL1        0.0235
     25 H          -2.6000    9.1060   25.6030 H       1  UNL1        0.0476
     26 H          -2.4210    7.2190   22.6210 H       1  UNL1        0.0281
     27 H          -4.4180    8.3650   21.9650 H       1  UNL1        0.0278
     28 H          -2.4490    9.3040   20.9350 H       1  UNL1        0.0427
     29 H          -0.2790    9.9760   21.2050 H       1  UNL1        0.0427
     30 H           0.4380   11.0370   23.9440 H       1  UNL1        0.0281
     31 H           1.9610   12.3580   22.8290 H       1  UNL1        0.0328
     32 H           6.5680    6.8990   26.9860 H       1  UNL1        0.0235
     33 H           4.0440   11.6440   20.5090 H       1  UNL1        0.0278
     34 H           6.4710    5.8420   24.0860 H       1  UNL1        0.0235
     35 C           4.6830   10.8120   20.8210 C.3     1  UNL1       -0.0373
     36 C           4.4350   10.4320   22.2420 C.ar    1  UNL1       -0.0186
     37 C           3.2780   10.6660   22.9890 C.ar    1  UNL1        0.0277
     38 N           3.5180   10.1960   24.2860 N.ar    1  UNL1       -0.3161
     39 C           4.7370    9.5620   24.3080 C.ar    1  UNL1        0.0353
     40 C           5.3370    9.7090   23.0740 C.ar    1  UNL1        0.0416
     41 C           6.6530    9.1400   22.8010 C.2     1  UNL1        0.1657
     42 O           7.2000    9.2320   21.7040 O.2     1  UNL1       -0.2920
     43 C           7.3610    8.4750   23.9810 C.3     1  UNL1        0.0160
     44 C           6.3980    7.8250   25.0110 C.3     1  UNL1       -0.0225
     45 C           5.3240    8.8470   25.4830 C.3     1  UNL1       -0.0057
     46 C           5.7230    6.5800   24.3950 C.3     1  UNL1       -0.0591
     47 C           7.2140    7.3650   26.2330 C.3     1  UNL1       -0.0591
     48 C           2.6320   10.2520   25.3830 C.ar    1  UNL1        0.0484
     49 C           2.5740   11.4120   26.1480 C.ar    1  UNL1       -0.0370
     50 C           1.5280   11.5570   27.0580 C.ar    1  UNL1       -0.0459
     51 C           0.4950   10.5990   27.1320 C.ar    1  UNL1        0.0574
     52 C           0.5400    9.4420   26.3120 C.ar    1  UNL1        0.0414
     53 C           1.6820    9.2310   25.5250 C.ar    1  UNL1       -0.0162
     54 N          -0.5960    8.6490   26.0150 N.pl3   1  UNL1       -0.3417
     55 C          -1.6170    9.3350   25.1760 C.3     1  UNL1        0.0247
     56 C          -1.5610    8.9070   23.6690 C.3     1  UNL1        0.0259
     57 C          -2.7520    7.9980   23.3210 C.3     1  UNL1       -0.0347
     58 C          -3.7280    8.9150   22.6120 C.3     1  UNL1       -0.0387
     59 C          -2.8040    9.8260   21.8320 C.3     1  UNL1       -0.0007
     60 N          -1.7110   10.0850   22.7740 N.3     1  UNL1       -0.2979
     61 C          -0.5030   10.5880   22.0870 C.3     1  UNL1       -0.0004
     62 C           0.7260   10.5870   22.9900 C.3     1  UNL1       -0.0348
     63 C           1.9800   11.3100   22.5060 C.3     1  UNL1       -0.0105
     64 C          -0.6070   10.8920   28.1010 C.2     1  UNL1        0.2433
     65 O          -0.7140   11.9790   28.6560 O.2     1  UNL1       -0.2704
     66 N          -1.4840    9.8840   28.3750 N.am    1  UNL1       -0.3253
@<TRIPOS>BOND
     1    20    35    1
     2    33    35    1
     3     2    35    1
     4    35    36    1
     5    28    59    1
     6    29    61    1
     7    18    63    1
     8    15    59    1
     9    42    41    2
    10    16    61    1
    11    59    58    1
    12    59    60    1
    13    27    58    1
    14    61    60    1
    15    61    62    1
    16    36    37   ar
    17    36    40   ar
    18    63    31    1
    19    63    37    1
    20    63    62    1
    21    58    57    1
    22    58    14    1
    23    26    57    1
    24    60    56    1
    25    41    40    1
    26    41    43    1
    27    37    38   ar
    28    62    17    1
    29    62    30    1
    30    40    39   ar
    31    57    56    1
    32    57    13    1
    33    12    56    1
    34     5    46    1
    35    21    43    1
    36    56    55    1
    37    43     3    1
    38    43    44    1
    39    34    46    1
    40    38    39   ar
    41    38    48    1
    42    39    45    1
    43    46    44    1
    44    46    23    1
    45     9    53    1
    46    44    45    1
    47    44    47    1
    48    55    11    1
    49    55    25    1
    50    55    54    1
    51    48    53   ar
    52    48    49   ar
    53    45     4    1
    54    45    22    1
    55    53    52   ar
    56    10    54    1
    57    24    47    1
    58    54    52    1
    59     7    49    1
    60    49    50   ar
    61    47     6    1
    62    47    32    1
    63    52    51   ar
    64    50    51   ar
    65    50     8    1
    66    51    64    1
    67    19    66    1
    68    64    66   am
    69    64    65    2
    70    66     1    1
