@<TRIPOS>MOLECULE
145.85109
 66 70 0 0 0
SMALL
GASTEIGER

@<TRIPOS>ATOM
      1 H          -2.2600    9.4930   28.3240 H       1  UNL1        0.1453
      2 H           6.7370   10.9400   21.0010 H       1  UNL1        0.0278
      3 H           8.2490    9.0960   25.0720 H       1  UNL1        0.0350
      4 H           4.6100    8.3920   26.2140 H       1  UNL1        0.0333
      5 H           5.4480    6.7530   23.8280 H       1  UNL1        0.0235
      6 H           7.6470    8.1760   27.2990 H       1  UNL1        0.0235
      7 H           3.0310   12.4390   25.5780 H       1  UNL1        0.0638
      8 H           0.9340   12.4910   26.8870 H       1  UNL1        0.0626
      9 H           2.4260    8.2400   24.8200 H       1  UNL1        0.0657
     10 H           0.5260    7.1890   25.6610 H       1  UNL1        0.1461
     11 H          -1.6740    9.1190   24.9820 H       1  UNL1        0.0476
     12 H           0.1920    7.4620   23.1660 H       1  UNL1        0.0478
     13 H          -2.4750    6.9480   22.9100 H       1  UNL1        0.0281
     14 H          -3.1660    9.2900   22.8800 H       1  UNL1        0.0278
     15 H          -1.7040   10.9420   21.9290 H       1  UNL1        0.0427
     16 H           1.0810    9.4720   21.1780 H       1  UNL1        0.0427
     17 H           1.0600   11.5000   23.4840 H       1  UNL1        0.0281
     18 H           3.0110   11.5370   21.1880 H       1  UNL1        0.0328
     19 H          -1.0660    8.5150   27.4820 H       1  UNL1        0.1453
     20 H           5.4460    9.9360   20.3040 H       1  UNL1        0.0278
     21 H           8.3790    7.5230   24.2710 H       1  UNL1        0.0350
     22 H           5.8710    9.6070   26.4110 H       1  UNL1        0.0333
     23 H           5.1310    6.1000   25.4380 H       1  UNL1        0.0235
     24 H           7.9290    6.5570   26.6450 H       1  UNL1        0.0235
     25 H          -1.7610    7.3730   24.9870 H       1  UNL1        0.0476
     26 H          -1.4330    7.1930   21.5000 H       1  UNL1        0.0281
     27 H          -3.1890    8.8190   21.1670 H       1  UNL1        0.0278
     28 H          -1.0610    9.7760   20.7550 H       1  UNL1        0.0427
     29 H           1.7060    9.0690   22.7480 H       1  UNL1        0.0427
     30 H           0.7790   11.8200   21.8080 H       1  UNL1        0.0281
     31 H           2.9770   12.6160   22.5640 H       1  UNL1        0.0328
     32 H           6.4040    6.9280   27.4640 H       1  UNL1        0.0235
     33 H           5.1840   11.6640   20.6180 H       1  UNL1        0.0278
     34 H           6.6580    5.7400   24.6220 H       1  UNL1        0.0235
     35 C           5.6580   10.7540   20.9990 C.3     1  UNL1       -0.0373
     36 C           5.1680   10.4080   22.3660 C.ar    1  UNL1       -0.0186
     37 C           3.9430   10.7660   22.9400 C.ar    1  UNL1        0.0277
     38 N           3.9370   10.2760   24.2480 N.ar    1  UNL1       -0.3161
     39 C           5.0910    9.5470   24.4520 C.ar    1  UNL1        0.0353
     40 C           5.8750    9.6250   23.3190 C.ar    1  UNL1        0.0416
     41 C           7.1750    8.9640   23.2480 C.2     1  UNL1        0.1657
     42 O           7.8650    8.9660   22.2310 O.2     1  UNL1       -0.2920
     43 C           7.6790    8.3240   24.5390 C.3     1  UNL1        0.0160
     44 C           6.5520    7.7660   25.4470 C.3     1  UNL1       -0.0225
     45 C           5.4730    8.8510   25.7220 C.3     1  UNL1       -0.0057
     46 C           5.9100    6.5230   24.7940 C.3     1  UNL1       -0.0591
     47 C           7.1680    7.3320   26.7900 C.3     1  UNL1       -0.0591
     48 C           2.8590   10.3220   25.1540 C.ar    1  UNL1        0.0484
     49 C           2.4530   11.5290   25.7120 C.ar    1  UNL1       -0.0370
     50 C           1.2580   11.5560   26.4320 C.ar    1  UNL1       -0.0459
     51 C           0.4410   10.4080   26.5330 C.ar    1  UNL1        0.0574
     52 C           0.8510    9.1930   25.9360 C.ar    1  UNL1        0.0414
     53 C           2.1050    9.1540   25.3160 C.ar    1  UNL1       -0.0162
     54 N           0.0260    8.0700   25.7450 N.pl3   1  UNL1       -0.3417
     55 C          -1.0880    8.2140   24.7820 C.3     1  UNL1        0.0247
     56 C          -0.6510    8.1540   23.2760 C.3     1  UNL1        0.0259
     57 C          -1.8200    7.6680   22.4120 C.3     1  UNL1       -0.0347
     58 C          -2.5470    8.9440   22.0440 C.3     1  UNL1       -0.0387
     59 C          -1.3990    9.9000   21.7910 C.3     1  UNL1       -0.0007
     60 N          -0.3630    9.5100   22.7560 N.3     1  UNL1       -0.2979
     61 C           0.9970    9.7260   22.2420 C.3     1  UNL1       -0.0004
     62 C           1.3750   11.1910   22.4850 C.3     1  UNL1       -0.0348
     63 C           2.8430   11.5660   22.2720 C.3     1  UNL1       -0.0105
     64 C          -0.8130   10.5630   27.3330 C.2     1  UNL1        0.2433
     65 O          -1.2630   11.6630   27.6330 O.2     1  UNL1       -0.2704
     66 N          -1.4220    9.4220   27.7670 N.am    1  UNL1       -0.3253
@<TRIPOS>BOND
     1    20    35    1
     2    33    35    1
     3    28    59    1
     4    35     2    1
     5    35    36    1
     6    27    58    1
     7    16    61    1
     8    18    63    1
     9    26    57    1
    10    59    15    1
    11    59    58    1
    12    59    60    1
    13    30    62    1
    14    58    57    1
    15    58    14    1
    16    42    41    2
    17    61    62    1
    18    61    29    1
    19    61    60    1
    20    63    62    1
    21    63    31    1
    22    63    37    1
    23    36    37   ar
    24    36    40   ar
    25    57    13    1
    26    57    56    1
    27    62    17    1
    28    60    56    1
    29    37    38   ar
    30    12    56    1
    31    41    40    1
    32    41    43    1
    33    56    55    1
    34    40    39   ar
    35     5    46    1
    36    38    39   ar
    37    38    48    1
    38    21    43    1
    39    39    45    1
    40    43     3    1
    41    43    44    1
    42    34    46    1
    43    55    11    1
    44    55    25    1
    45    55    54    1
    46    46    23    1
    47    46    44    1
    48     9    53    1
    49    48    53   ar
    50    48    49   ar
    51    53    52   ar
    52    44    45    1
    53    44    47    1
    54     7    49    1
    55    10    54    1
    56    49    50   ar
    57    45     4    1
    58    45    22    1
    59    54    52    1
    60    52    51   ar
    61    50    51   ar
    62    50     8    1
    63    51    64    1
    64    24    47    1
    65    47     6    1
    66    47    32    1
    67    64    65    2
    68    64    66   am
    69    19    66    1
    70    66     1    1
