@<TRIPOS>MOLECULE
137.74984
 66 70 0 0 0
SMALL
GASTEIGER

@<TRIPOS>ATOM
      1 H          -2.9300   -0.2720   23.4570 H       1  UNL1        0.1453
      2 H           3.1860    6.6930   30.2030 H       1  UNL1        0.0278
      3 H           2.0410    2.5380   32.5980 H       1  UNL1        0.0350
      4 H           1.8410    0.6870   29.1990 H       1  UNL1        0.0333
      5 H           4.6290    1.5430   29.9120 H       1  UNL1        0.0235
      6 H           1.3000    0.1800   32.3550 H       1  UNL1        0.0235
      7 H          -0.4820    1.6980   28.4340 H       1  UNL1        0.0638
      8 H          -1.6160    0.4270   26.6840 H       1  UNL1        0.0626
      9 H           2.4460    2.9560   25.5780 H       1  UNL1        0.0657
     10 H           0.9000    1.3290   22.7590 H       1  UNL1        0.1461
     11 H           0.8590    4.0510   23.4290 H       1  UNL1        0.0476
     12 H           3.4970    3.2900   23.8950 H       1  UNL1        0.0478
     13 H           3.2900    3.6930   20.8920 H       1  UNL1        0.0281
     14 H           5.2780    4.8280   20.9410 H       1  UNL1        0.0278
     15 H           4.9200    6.4450   22.5930 H       1  UNL1        0.0427
     16 H           1.6150    5.9120   24.2570 H       1  UNL1        0.0427
     17 H           3.9160    6.2120   26.0970 H       1  UNL1        0.0281
     18 H           1.7560    6.4200   27.0480 H       1  UNL1        0.0328
     19 H          -2.9410    0.5760   24.9710 H       1  UNL1        0.1453
     20 H           4.7030    5.9920   29.5940 H       1  UNL1        0.0278
     21 H           3.7570    2.1450   32.7930 H       1  UNL1        0.0350
     22 H           0.7840    1.4930   30.3710 H       1  UNL1        0.0333
     23 H           4.0790   -0.1330   29.8520 H       1  UNL1        0.0235
     24 H           2.9570   -0.3280   32.7090 H       1  UNL1        0.0235
     25 H           1.2340    3.3840   21.8630 H       1  UNL1        0.0476
     26 H           4.1270    2.4090   21.7810 H       1  UNL1        0.0281
     27 H           5.9390    3.8190   22.2390 H       1  UNL1        0.0278
     28 H           5.2540    5.2590   23.8720 H       1  UNL1        0.0427
     29 H           2.9390    7.0160   24.2220 H       1  UNL1        0.0427
     30 H           3.7230    4.5450   25.6770 H       1  UNL1        0.0281
     31 H           1.0880    5.0620   26.2020 H       1  UNL1        0.0328
     32 H           2.1360   -0.9310   31.2600 H       1  UNL1        0.0235
     33 H           3.6240    6.8620   28.5000 H       1  UNL1        0.0278
     34 H           4.8870    0.4830   31.2990 H       1  UNL1        0.0235
     35 C           3.6510    6.1810   29.3550 C.3     1  UNL1       -0.0373
     36 C           2.9460    4.8970   29.0740 C.ar    1  UNL1       -0.0186
     37 C           2.2750    4.5340   27.9100 C.ar    1  UNL1        0.0277
     38 N           1.7560    3.2390   28.0820 N.ar    1  UNL1       -0.3161
     39 C           2.0830    2.8220   29.3620 C.ar    1  UNL1        0.0353
     40 C           2.8130    3.8170   29.9860 C.ar    1  UNL1        0.0416
     41 C           3.3320    3.6540   31.3410 C.2     1  UNL1        0.1657
     42 O           3.9680    4.5360   31.9150 O.2     1  UNL1       -0.2920
     43 C           2.9750    2.3540   32.0520 C.3     1  UNL1        0.0160
     44 C           2.8100    1.1450   31.0960 C.3     1  UNL1       -0.0225
     45 C           1.8010    1.4760   29.9590 C.3     1  UNL1       -0.0057
     46 C           4.1770    0.7410   30.5050 C.3     1  UNL1       -0.0591
     47 C           2.2700   -0.0520   31.9010 C.3     1  UNL1       -0.0591
     48 C           1.0460    2.4740   27.1070 C.ar    1  UNL1        0.0484
     49 C          -0.0820    1.7240   27.4250 C.ar    1  UNL1       -0.0370
     50 C          -0.7500    1.0240   26.4110 C.ar    1  UNL1       -0.0459
     51 C          -0.3150    1.0910   25.0700 C.ar    1  UNL1        0.0574
     52 C           0.8400    1.8290   24.7420 C.ar    1  UNL1        0.0414
     53 C           1.5040    2.4780   25.7890 C.ar    1  UNL1       -0.0162
     54 N           1.2910    2.0010   23.4280 N.pl3   1  UNL1       -0.3417
     55 C           1.5350    3.3570   22.9170 C.3     1  UNL1        0.0247
     56 C           3.0120    3.8000   23.0570 C.3     1  UNL1        0.0259
     57 C           3.8380    3.4650   21.8140 C.3     1  UNL1       -0.0347
     58 C           5.0560    4.3800   21.9150 C.3     1  UNL1       -0.0387
     59 C           4.6860    5.4380   22.9520 C.3     1  UNL1       -0.0007
     60 N           3.2480    5.2560   23.1460 N.3     1  UNL1       -0.2979
     61 C           2.7080    5.9460   24.3220 C.3     1  UNL1       -0.0004
     62 C           3.1790    5.4920   25.7200 C.3     1  UNL1       -0.0348
     63 C           1.9980    5.4070   26.7040 C.3     1  UNL1       -0.0105
     64 C          -1.0790    0.3840   23.9990 C.2     1  UNL1        0.2433
     65 O          -0.5530    0.0090   22.9570 O.2     1  UNL1       -0.2704
     66 N          -2.4200    0.1950   24.1960 N.am    1  UNL1       -0.3253
@<TRIPOS>BOND
     1    13    57    1
     2    14    58    1
     3    26    57    1
     4    57    58    1
     5    57    56    1
     6    25    55    1
     7    58    27    1
     8    58    59    1
     9    15    59    1
    10    10    54    1
    11    55    56    1
    12    55    54    1
    13    55    11    1
    14    59    60    1
    15    59    28    1
    16    65    64    2
    17    56    60    1
    18    56    12    1
    19    60    61    1
    20    54    52    1
    21     1    66    1
    22    64    66   am
    23    64    51    1
    24    66    19    1
    25    29    61    1
    26    16    61    1
    27    61    62    1
    28    52    51   ar
    29    52    53   ar
    30    51    50   ar
    31     9    53    1
    32    30    62    1
    33    62    17    1
    34    62    63    1
    35    53    48   ar
    36    31    63    1
    37    50     8    1
    38    50    49   ar
    39    63    18    1
    40    63    37    1
    41    48    49   ar
    42    48    38    1
    43    49     7    1
    44    37    38   ar
    45    37    36   ar
    46    38    39   ar
    47    33    35    1
    48    36    35    1
    49    36    40   ar
    50     4    45    1
    51    35    20    1
    52    35     2    1
    53    39    45    1
    54    39    40   ar
    55    23    46    1
    56     5    46    1
    57    45    22    1
    58    45    44    1
    59    40    41    1
    60    46    44    1
    61    46    34    1
    62    44    47    1
    63    44    43    1
    64    32    47    1
    65    41    42    2
    66    41    43    1
    67    47     6    1
    68    47    24    1
    69    43     3    1
    70    43    21    1
