@<TRIPOS>MOLECULE
137.59619
 66 70 0 0 0
SMALL
GASTEIGER

@<TRIPOS>ATOM
      1 H           9.7190    5.1310   22.6430 H       1  UNL1        0.1453
      2 H           1.2130    9.0590   29.2500 H       1  UNL1        0.0278
      3 H           5.1410   11.9050   29.5970 H       1  UNL1        0.0350
      4 H           6.1900   10.8800   26.0080 H       1  UNL1        0.0333
      5 H           3.6860   12.5300   26.0770 H       1  UNL1        0.0235
      6 H           7.2720   12.6060   28.5350 H       1  UNL1        0.0235
      7 H           7.0520    8.4420   26.7100 H       1  UNL1        0.0638
      8 H           8.6000    7.4300   25.1180 H       1  UNL1        0.0626
      9 H           3.8500    7.9150   23.8930 H       1  UNL1        0.0657
     10 H           5.8670    6.3650   21.3970 H       1  UNL1        0.1461
     11 H           4.6660    4.7590   23.2120 H       1  UNL1        0.0476
     12 H           2.6830    6.8000   22.5350 H       1  UNL1        0.0478
     13 H           2.4200    5.1120   20.4450 H       1  UNL1        0.0281
     14 H           2.0250    2.9850   21.3410 H       1  UNL1        0.0278
     15 H           2.7240    3.0630   23.5070 H       1  UNL1        0.0427
     16 H           0.6530    5.1860   25.1380 H       1  UNL1        0.0427
     17 H           0.5840    7.5640   25.4890 H       1  UNL1        0.0281
     18 H           2.1060    6.4390   26.9820 H       1  UNL1        0.0328
     19 H           9.2340    5.5100   24.2650 H       1  UNL1        0.1453
     20 H           0.5040    9.8680   27.8340 H       1  UNL1        0.0278
     21 H           4.2050   13.2860   29.0060 H       1  UNL1        0.0350
     22 H           6.5220   10.4510   27.6950 H       1  UNL1        0.0333
     23 H           5.2300   13.0810   25.4220 H       1  UNL1        0.0235
     24 H           6.4760   14.1060   28.0390 H       1  UNL1        0.0235
     25 H           4.4110    4.6720   21.4870 H       1  UNL1        0.0476
     26 H           1.0210    5.7720   21.2910 H       1  UNL1        0.0281
     27 H           0.4200    3.6240   21.7380 H       1  UNL1        0.0278
     28 H           1.0520    3.2930   23.9770 H       1  UNL1        0.0427
     29 H           0.3230    6.0020   23.6170 H       1  UNL1        0.0427
     30 H           1.8000    7.8730   24.2880 H       1  UNL1        0.0281
     31 H           3.3740    6.3220   25.8070 H       1  UNL1        0.0328
     32 H           7.3230   13.1140   26.8410 H       1  UNL1        0.0235
     33 H           0.6450    8.1050   27.8800 H       1  UNL1        0.0278
     34 H           4.3830   14.0550   26.6300 H       1  UNL1        0.0235
     35 C           1.1420    9.0390   28.1580 C.3     1  UNL1       -0.0373
     36 C           2.4960    9.1600   27.5440 C.ar    1  UNL1       -0.0186
     37 C           3.0970    8.2960   26.6320 C.ar    1  UNL1        0.0277
     38 N           4.3760    8.7880   26.3320 N.ar    1  UNL1       -0.3161
     39 C           4.5660    9.9460   27.0720 C.ar    1  UNL1        0.0353
     40 C           3.4270   10.1970   27.8140 C.ar    1  UNL1        0.0416
     41 C           3.3110   11.3760   28.6680 C.2     1  UNL1        0.1657
     42 O           2.3070   11.6110   29.3380 O.2     1  UNL1       -0.2920
     43 C           4.5400   12.2720   28.7560 C.3     1  UNL1        0.0160
     44 C           5.3890   12.2960   27.4590 C.3     1  UNL1       -0.0225
     45 C           5.7590   10.8520   27.0160 C.3     1  UNL1       -0.0057
     46 C           4.6260   13.0280   26.3350 C.3     1  UNL1       -0.0591
     47 C           6.6890   13.0750   27.7340 C.3     1  UNL1       -0.0591
     48 C           5.3170    8.2140   25.4270 C.ar    1  UNL1        0.0484
     49 C           6.6690    8.1030   25.7520 C.ar    1  UNL1       -0.0370
     50 C           7.5490    7.4900   24.8520 C.ar    1  UNL1       -0.0459
     51 C           7.0810    6.9590   23.6350 C.ar    1  UNL1        0.0574
     52 C           5.7220    7.0920   23.2860 C.ar    1  UNL1        0.0414
     53 C           4.8740    7.7410   24.1900 C.ar    1  UNL1       -0.0162
     54 N           5.1670    6.4990   22.1380 N.pl3   1  UNL1       -0.3417
     55 C           4.2940    5.3350   22.3530 C.3     1  UNL1        0.0247
     56 C           2.7910    5.7130   22.5360 C.3     1  UNL1        0.0259
     57 C           1.9160    5.1480   21.4150 C.3     1  UNL1       -0.0347
     58 C           1.4950    3.7690   21.8930 C.3     1  UNL1       -0.0387
     59 C           1.8570    3.7210   23.3690 C.3     1  UNL1       -0.0007
     60 N           2.2420    5.0850   23.7690 N.3     1  UNL1       -0.2979
     61 C           1.1070    5.8140   24.3600 C.3     1  UNL1       -0.0004
     62 C           1.4920    7.1400   25.0400 C.3     1  UNL1       -0.0348
     63 C           2.5570    6.9710   26.1340 C.3     1  UNL1       -0.0105
     64 C           8.0220    6.2590   22.7130 C.2     1  UNL1        0.2433
     65 O           7.8450    6.2220   21.5000 O.2     1  UNL1       -0.2704
     66 N           9.0930    5.6150   23.2720 N.am    1  UNL1       -0.3253
@<TRIPOS>BOND
     1    13    57    1
     2    26    57    1
     3    14    58    1
     4    10    54    1
     5    57    58    1
     6    57    56    1
     7    25    55    1
     8    65    64    2
     9    27    58    1
    10    58    59    1
    11    54    55    1
    12    54    52    1
    13    55    56    1
    14    55    11    1
    15    12    56    1
    16    56    60    1
    17     1    66    1
    18    64    66   am
    19    64    51    1
    20    66    19    1
    21    52    51   ar
    22    52    53   ar
    23    59    15    1
    24    59    60    1
    25    59    28    1
    26    29    61    1
    27    51    50   ar
    28    60    61    1
    29     9    53    1
    30    53    48   ar
    31    30    62    1
    32    61    62    1
    33    61    16    1
    34    50     8    1
    35    50    49   ar
    36    62    17    1
    37    62    63    1
    38    23    46    1
    39    48    49   ar
    40    48    38    1
    41    49     7    1
    42    31    63    1
    43     4    45    1
    44     5    46    1
    45    63    37    1
    46    63    18    1
    47    38    37   ar
    48    38    39   ar
    49    46    34    1
    50    46    44    1
    51    37    36   ar
    52    32    47    1
    53    45    39    1
    54    45    44    1
    55    45    22    1
    56    39    40   ar
    57    44    47    1
    58    44    43    1
    59    36    40   ar
    60    36    35    1
    61    47    24    1
    62    47     6    1
    63    40    41    1
    64    20    35    1
    65    33    35    1
    66    35     2    1
    67    41    43    1
    68    41    42    2
    69    43    21    1
    70    43     3    1
