@<TRIPOS>MOLECULE
154.00071
 66 70 0 0 0
SMALL
GASTEIGER

@<TRIPOS>ATOM
      1 H           4.3200   -1.4190   30.5300 H       1  UNL1        0.1453
      2 H           7.6800    2.2970   20.1490 H       1  UNL1        0.0278
      3 H          10.1870   -1.8280   21.6410 H       1  UNL1        0.0350
      4 H           6.7680   -2.8380   23.1460 H       1  UNL1        0.0333
      5 H           6.5870   -1.9710   20.2550 H       1  UNL1        0.0235
      6 H           9.6610   -4.1070   22.4680 H       1  UNL1        0.0235
      7 H           7.2820   -1.8180   25.4950 H       1  UNL1        0.0638
      8 H           6.1590   -2.2840   27.5980 H       1  UNL1        0.0626
      9 H           3.7920    0.3470   24.1650 H       1  UNL1        0.0657
     10 H           2.1930    0.3790   27.3130 H       1  UNL1        0.1461
     11 H           4.3110    2.1280   26.9200 H       1  UNL1        0.0476
     12 H           2.9900    2.4060   24.5590 H       1  UNL1        0.0478
     13 H           1.2180    3.8910   26.5180 H       1  UNL1        0.0281
     14 H           0.9300    5.5470   24.9620 H       1  UNL1        0.0278
     15 H           3.1200    6.1060   24.3750 H       1  UNL1        0.0427
     16 H           5.5630    3.8060   26.0300 H       1  UNL1        0.0427
     17 H           6.8880    3.7740   24.0080 H       1  UNL1        0.0281
     18 H           5.2700    1.9120   24.7330 H       1  UNL1        0.0328
     19 H           5.7300   -1.4080   29.5200 H       1  UNL1        0.1453
     20 H           6.5540    3.1940   21.1490 H       1  UNL1        0.0278
     21 H           9.6360   -2.1230   19.9840 H       1  UNL1        0.0350
     22 H           8.4070   -2.3860   23.6480 H       1  UNL1        0.0333
     23 H           6.3180   -3.6180   20.8300 H       1  UNL1        0.0235
     24 H           9.2500   -4.5620   20.8090 H       1  UNL1        0.0235
     25 H           2.7510    2.5270   27.5970 H       1  UNL1        0.0476
     26 H           0.7490    2.7610   25.2370 H       1  UNL1        0.0281
     27 H           0.9790    4.4160   23.5990 H       1  UNL1        0.0278
     28 H           3.2170    4.7110   23.2770 H       1  UNL1        0.0427
     29 H           5.4450    5.3260   25.2130 H       1  UNL1        0.0427
     30 H           5.5340    4.2650   22.9950 H       1  UNL1        0.0281
     31 H           4.4710    2.1910   23.1480 H       1  UNL1        0.0328
     32 H           8.1010   -4.8660   22.1220 H       1  UNL1        0.0235
     33 H           8.2740    3.1440   21.5940 H       1  UNL1        0.0278
     34 H           7.4750   -3.3120   19.5280 H       1  UNL1        0.0235
     35 C           7.4440    2.5600   21.1840 C.3     1  UNL1       -0.0373
     36 C           7.2100    1.3450   22.0150 C.ar    1  UNL1       -0.0186
     37 C           6.3300    1.2150   23.0830 C.ar    1  UNL1        0.0277
     38 N           6.3770   -0.1200   23.5490 N.ar    1  UNL1       -0.3161
     39 C           7.3200   -0.7890   22.7870 C.ar    1  UNL1        0.0353
     40 C           7.8550    0.0860   21.8570 C.ar    1  UNL1        0.0416
     41 C           8.8640   -0.3500   20.8930 C.2     1  UNL1        0.1657
     42 O           9.3910    0.4200   20.0920 O.2     1  UNL1       -0.2920
     43 C           9.3090   -1.8060   20.9820 C.3     1  UNL1        0.0160
     44 C           8.2150   -2.7660   21.5150 C.3     1  UNL1       -0.0225
     45 C           7.6490   -2.2490   22.8670 C.3     1  UNL1       -0.0057
     46 C           7.0850   -2.9200   20.4750 C.3     1  UNL1       -0.0591
     47 C           8.8420   -4.1540   21.7420 C.3     1  UNL1       -0.0591
     48 C           5.6480   -0.6400   24.6760 C.ar    1  UNL1        0.0484
     49 C           6.2780   -1.4330   25.6360 C.ar    1  UNL1       -0.0370
     50 C           5.6540   -1.6520   26.8730 C.ar    1  UNL1       -0.0459
     51 C           4.4490   -1.0000   27.1960 C.ar    1  UNL1        0.0574
     52 C           3.7970   -0.2220   26.2200 C.ar    1  UNL1        0.0414
     53 C           4.3530   -0.1740   24.9370 C.ar    1  UNL1       -0.0162
     54 N           2.7790    0.7100   26.5360 N.pl3   1  UNL1       -0.3417
     55 C           3.2370    2.1150   26.7040 C.3     1  UNL1        0.0247
     56 C           2.9170    3.0010   25.4710 C.3     1  UNL1        0.0259
     57 C           1.4790    3.5270   25.5170 C.3     1  UNL1       -0.0347
     58 C           1.4720    4.6960   24.5370 C.3     1  UNL1       -0.0387
     59 C           2.9390    5.0290   24.2890 C.3     1  UNL1       -0.0007
     60 N           3.6570    4.2740   25.3150 N.3     1  UNL1       -0.2979
     61 C           5.1180    4.2800   25.1460 C.3     1  UNL1       -0.0004
     62 C           5.8030    3.6810   23.8810 C.3     1  UNL1       -0.0348
     63 C           5.4120    2.2310   23.7060 C.3     1  UNL1       -0.0105
     64 C           3.8710   -1.1040   28.5680 C.2     1  UNL1        0.2433
     65 O           2.6760   -0.9320   28.7850 O.2     1  UNL1       -0.2704
     66 N           4.7260   -1.3620   29.6040 N.am    1  UNL1       -0.3253
@<TRIPOS>BOND
     1    34    46    1
     2    21    43    1
     3    42    41    2
     4     2    35    1
     5     5    46    1
     6    46    23    1
     7    46    44    1
     8    24    47    1
     9    41    43    1
    10    41    40    1
    11    43    44    1
    12    43     3    1
    13    20    35    1
    14    35    33    1
    15    35    36    1
    16    44    47    1
    17    44    45    1
    18    47    32    1
    19    47     6    1
    20    40    36   ar
    21    40    39   ar
    22    36    37   ar
    23    39    45    1
    24    39    38   ar
    25    45     4    1
    26    45    22    1
    27    30    62    1
    28    37    38   ar
    29    37    63    1
    30    31    63    1
    31    28    59    1
    32    38    48    1
    33    27    58    1
    34    63    62    1
    35    63    18    1
    36    62    17    1
    37    62    61    1
    38     9    53    1
    39    59    15    1
    40    59    58    1
    41    59    60    1
    42    58    14    1
    43    58    57    1
    44    12    56    1
    45    48    53   ar
    46    48    49   ar
    47    53    52   ar
    48    61    29    1
    49    61    60    1
    50    61    16    1
    51    26    57    1
    52    60    56    1
    53    56    57    1
    54    56    55    1
    55     7    49    1
    56    57    13    1
    57    49    50   ar
    58    52    54    1
    59    52    51   ar
    60    54    55    1
    61    54    10    1
    62    55    11    1
    63    55    25    1
    64    50    51   ar
    65    50     8    1
    66    51    64    1
    67    64    65    2
    68    64    66   am
    69    19    66    1
    70    66     1    1
