@<TRIPOS>MOLECULE
131.22205
 66 70 0 0 0
SMALL
GASTEIGER

@<TRIPOS>ATOM
      1 H           2.8560    4.1570   16.4250 H       1  UNL1        0.1453
      2 H           2.4650   11.7710   24.9080 H       1  UNL1        0.0278
      3 H          -1.0820   12.6550   21.8320 H       1  UNL1        0.0350
      4 H          -1.1470    8.9190   20.7800 H       1  UNL1        0.0333
      5 H          -2.0510    9.3660   23.6030 H       1  UNL1        0.0235
      6 H          -2.5130   11.7670   20.0070 H       1  UNL1        0.0235
      7 H           1.3560    9.0670   19.2930 H       1  UNL1        0.0638
      8 H           1.5960    7.2170   17.6960 H       1  UNL1        0.0626
      9 H           1.3980    6.2650   22.5280 H       1  UNL1        0.0657
     10 H           1.8420    3.3410   20.3750 H       1  UNL1        0.1461
     11 H           1.6610    2.6030   22.5120 H       1  UNL1        0.0476
     12 H           3.2380    3.3900   24.1480 H       1  UNL1        0.0478
     13 H           4.0960    2.6970   21.4050 H       1  UNL1        0.0281
     14 H           5.5300    4.5130   21.2560 H       1  UNL1        0.0278
     15 H           5.8170    6.0130   23.1010 H       1  UNL1        0.0427
     16 H           3.5850    5.4710   25.3580 H       1  UNL1        0.0427
     17 H           4.7940    7.4520   24.7410 H       1  UNL1        0.0281
     18 H           4.3200    9.0430   23.2130 H       1  UNL1        0.0328
     19 H           3.1110    5.8000   16.9270 H       1  UNL1        0.1453
     20 H           1.8200   10.4450   25.9020 H       1  UNL1        0.0278
     21 H          -2.2720   12.3870   23.1150 H       1  UNL1        0.0350
     22 H          -0.4670   10.4620   20.2430 H       1  UNL1        0.0333
     23 H          -3.1050    8.8430   22.2870 H       1  UNL1        0.0235
     24 H          -3.8300   11.6200   21.1790 H       1  UNL1        0.0235
     25 H           1.1360    4.1650   23.0750 H       1  UNL1        0.0476
     26 H           4.7210    2.1990   22.9800 H       1  UNL1        0.0281
     27 H           6.5320    3.5560   22.3630 H       1  UNL1        0.0278
     28 H           5.6390    4.7040   24.2990 H       1  UNL1        0.0427
     29 H           2.1980    5.9270   24.4050 H       1  UNL1        0.0427
     30 H           3.2090    7.9050   25.3210 H       1  UNL1        0.0281
     31 H           3.7950    7.6710   22.3050 H       1  UNL1        0.0328
     32 H          -3.3690   10.2280   20.1860 H       1  UNL1        0.0235
     33 H           3.4260   10.3190   25.1630 H       1  UNL1        0.0278
     34 H          -3.5490   10.2410   23.2740 H       1  UNL1        0.0235
     35 C           2.4060   10.6820   25.0090 C.3     1  UNL1       -0.0373
     36 C           1.7730   10.0750   23.8030 C.ar    1  UNL1       -0.0186
     37 C           2.2300    8.9860   23.0590 C.ar    1  UNL1        0.0277
     38 N           1.3470    8.7940   21.9910 N.ar    1  UNL1       -0.3161
     39 C           0.3680    9.7660   22.0540 C.ar    1  UNL1        0.0353
     40 C           0.5910   10.5490   23.1700 C.ar    1  UNL1        0.0416
     41 C          -0.3120   11.6390   23.5280 C.2     1  UNL1        0.1657
     42 O          -0.1390   12.3440   24.5200 O.2     1  UNL1       -0.2920
     43 C          -1.4540   11.9170   22.5550 C.3     1  UNL1        0.0160
     44 C          -1.9700   10.6550   21.8150 C.3     1  UNL1       -0.0225
     45 C          -0.7990    9.9000   21.1250 C.3     1  UNL1       -0.0057
     46 C          -2.7050    9.7240   22.8020 C.3     1  UNL1       -0.0591
     47 C          -2.9780   11.0920   20.7350 C.3     1  UNL1       -0.0591
     48 C           1.4230    7.7650   21.0220 C.ar    1  UNL1        0.0484
     49 C           1.4290    8.0470   19.6610 C.ar    1  UNL1       -0.0370
     50 C           1.5950    6.9940   18.7600 C.ar    1  UNL1       -0.0459
     51 C           1.7590    5.6680   19.2190 C.ar    1  UNL1        0.0574
     52 C           1.6880    5.3680   20.5990 C.ar    1  UNL1        0.0414
     53 C           1.5030    6.4450   21.4680 C.ar    1  UNL1       -0.0162
     54 N           1.8470    4.0800   21.0820 N.pl3   1  UNL1       -0.3417
     55 C           1.9130    3.6710   22.4810 C.3     1  UNL1        0.0247
     56 C           3.3080    3.8360   23.1450 C.3     1  UNL1        0.0259
     57 C           4.4040    3.0660   22.3880 C.3     1  UNL1       -0.0347
     58 C           5.5590    4.0440   22.2480 C.3     1  UNL1       -0.0387
     59 C           5.2980    5.0760   23.3250 C.3     1  UNL1       -0.0007
     60 N           3.8410    5.2140   23.2770 N.3     1  UNL1       -0.2979
     61 C           3.2920    5.9560   24.4170 C.3     1  UNL1       -0.0004
     62 C           3.7280    7.4310   24.4790 C.3     1  UNL1       -0.0348
     63 C           3.5510    8.2570   23.1950 C.3     1  UNL1       -0.0105
     64 C           1.9950    4.5760   18.2270 C.2     1  UNL1        0.2433
     65 O           1.6340    3.4200   18.4170 O.2     1  UNL1       -0.2704
     66 N           2.6790    4.9030   17.0860 N.am    1  UNL1       -0.3253
@<TRIPOS>BOND
     1     1    66    1
     2    19    66    1
     3    66    64   am
     4     8    50    1
     5    64    65    2
     6    64    51    1
     7    50    51   ar
     8    50    49   ar
     9    51    52   ar
    10     7    49    1
    11    49    48   ar
    12     6    47    1
    13    32    47    1
    14    22    45    1
    15    10    54    1
    16    52    54    1
    17    52    53   ar
    18    47    24    1
    19    47    44    1
    20     4    45    1
    21    48    53   ar
    22    48    38    1
    23    54    55    1
    24    45    44    1
    25    45    39    1
    26    14    58    1
    27    13    57    1
    28    53     9    1
    29    44    43    1
    30    44    46    1
    31     3    43    1
    32    38    39   ar
    33    38    37   ar
    34    39    40   ar
    35    58    27    1
    36    58    57    1
    37    58    59    1
    38    23    46    1
    39    31    63    1
    40    57    26    1
    41    57    56    1
    42    55    11    1
    43    55    25    1
    44    55    56    1
    45    43    21    1
    46    43    41    1
    47    46    34    1
    48    46     5    1
    49    37    63    1
    50    37    36   ar
    51    15    59    1
    52    56    60    1
    53    56    12    1
    54    40    41    1
    55    40    36   ar
    56    63    18    1
    57    63    62    1
    58    60    59    1
    59    60    61    1
    60    59    28    1
    61    41    42    2
    62    36    35    1
    63    29    61    1
    64    61    62    1
    65    61    16    1
    66    62    17    1
    67    62    30    1
    68     2    35    1
    69    35    33    1
    70    35    20    1
