@<TRIPOS>MOLECULE
180.27709
 66 70 0 0 0
SMALL
GASTEIGER

@<TRIPOS>ATOM
      1 H          -4.7570    2.8320   23.8100 H       1  UNL1        0.1453
      2 H           6.2100    5.5790   26.6900 H       1  UNL1        0.0278
      3 H           3.6410    3.6990   30.3390 H       1  UNL1        0.0350
      4 H           1.8140    1.4580   27.7750 H       1  UNL1        0.0333
      5 H           4.8160    1.1250   27.7150 H       1  UNL1        0.0235
      6 H           2.0400    1.9070   30.9700 H       1  UNL1        0.0235
      7 H           0.0100    3.5270   27.2440 H       1  UNL1        0.0638
      8 H          -2.1770    3.3410   26.2050 H       1  UNL1        0.0626
      9 H           1.8540    2.3410   23.5400 H       1  UNL1        0.0657
     10 H          -1.1270    3.2470   21.6040 H       1  UNL1        0.1461
     11 H           1.6700    3.8560   22.1550 H       1  UNL1        0.0476
     12 H           1.5480    4.4670   19.9600 H       1  UNL1        0.0478
     13 H          -0.8510    6.1260   20.8610 H       1  UNL1        0.0281
     14 H          -0.0200    7.9850   19.8600 H       1  UNL1        0.0278
     15 H           2.3000    8.1190   20.2000 H       1  UNL1        0.0427
     16 H           4.0490    6.6130   21.1250 H       1  UNL1        0.0427
     17 H           3.4230    6.8280   23.5420 H       1  UNL1        0.0281
     18 H           2.0120    4.9900   23.8630 H       1  UNL1        0.0328
     19 H          -3.8270    2.3250   25.1830 H       1  UNL1        0.1453
     20 H           6.1240    5.0310   25.0180 H       1  UNL1        0.0278
     21 H           5.0660    2.6490   30.3700 H       1  UNL1        0.0350
     22 H           1.5380    2.8790   28.7960 H       1  UNL1        0.0333
     23 H           3.6820   -0.1110   28.2640 H       1  UNL1        0.0235
     24 H           3.4150    0.8150   31.1870 H       1  UNL1        0.0235
     25 H           0.3890    5.0210   22.7120 H       1  UNL1        0.0476
     26 H          -0.6200    5.2380   19.3490 H       1  UNL1        0.0281
     27 H           0.4450    7.0870   18.4060 H       1  UNL1        0.0278
     28 H           2.6050    6.7080   19.1580 H       1  UNL1        0.0427
     29 H           3.6600    4.9130   21.1070 H       1  UNL1        0.0427
     30 H           4.8000    5.7930   23.1770 H       1  UNL1        0.0281
     31 H           3.2840    3.8230   23.2540 H       1  UNL1        0.0328
     32 H           2.0600    0.3380   30.1520 H       1  UNL1        0.0235
     33 H           5.2100    6.4640   25.5460 H       1  UNL1        0.0278
     34 H           5.0290    0.3780   29.3000 H       1  UNL1        0.0235
     35 C           5.5390    5.4610   25.8370 C.3     1  UNL1       -0.0373
     36 C           4.3620    4.5980   26.1370 C.ar    1  UNL1       -0.0186
     37 C           3.3210    4.2910   25.2670 C.ar    1  UNL1        0.0277
     38 N           2.4010    3.4450   25.9460 N.ar    1  UNL1       -0.3161
     39 C           2.9010    3.2290   27.2170 C.ar    1  UNL1        0.0353
     40 C           4.0930    3.9200   27.3640 C.ar    1  UNL1        0.0416
     41 C           4.8590    3.8410   28.6080 C.2     1  UNL1        0.1657
     42 O           5.9130    4.4500   28.7850 O.2     1  UNL1       -0.2920
     43 C           4.2490    3.0130   29.7350 C.3     1  UNL1        0.0160
     44 C           3.3870    1.8240   29.2440 C.3     1  UNL1       -0.0225
     45 C           2.3040    2.3180   28.2460 C.3     1  UNL1       -0.0057
     46 C           4.2790    0.7480   28.5910 C.3     1  UNL1       -0.0591
     47 C           2.6850    1.1840   30.4570 C.3     1  UNL1       -0.0591
     48 C           1.1170    2.9970   25.4520 C.ar    1  UNL1        0.0484
     49 C          -0.0390    3.1990   26.2100 C.ar    1  UNL1       -0.0370
     50 C          -1.3030    3.1220   25.5970 C.ar    1  UNL1       -0.0459
     51 C          -1.4240    2.9560   24.2010 C.ar    1  UNL1        0.0574
     52 C          -0.2580    2.7750   23.4350 C.ar    1  UNL1        0.0414
     53 C           0.9730    2.6040   24.1180 C.ar    1  UNL1       -0.0162
     54 N          -0.1970    3.1470   22.0280 N.pl3   1  UNL1       -0.3417
     55 C           0.7060    4.2970   21.9500 C.3     1  UNL1        0.0247
     56 C           1.0650    5.0950   20.7210 C.3     1  UNL1        0.0259
     57 C          -0.1080    5.8410   20.1050 C.3     1  UNL1       -0.0347
     58 C           0.5110    7.0970   19.4990 C.3     1  UNL1       -0.0387
     59 C           1.9660    7.1050   19.9570 C.3     1  UNL1       -0.0007
     60 N           1.9800    6.2270   21.1350 N.3     1  UNL1       -0.2979
     61 C           3.3610    5.8700   21.5520 C.3     1  UNL1       -0.0004
     62 C           3.7100    5.8680   23.0960 C.3     1  UNL1       -0.0348
     63 C           3.0620    4.7150   23.8460 C.3     1  UNL1       -0.0105
     64 C          -2.7540    3.0960   23.5400 C.2     1  UNL1        0.2433
     65 O          -2.8770    3.4790   22.3820 O.2     1  UNL1       -0.2704
     66 N          -3.8590    2.7470   24.2680 N.am    1  UNL1       -0.3253
@<TRIPOS>BOND
     1    27    58    1
     2    28    59    1
     3    26    57    1
     4    58    14    1
     5    58    59    1
     6    58    57    1
     7    59    15    1
     8    59    60    1
     9    12    56    1
    10    57    56    1
    11    57    13    1
    12    56    60    1
    13    56    55    1
    14    29    61    1
    15    16    61    1
    16    60    61    1
    17    61    62    1
    18    10    54    1
    19    55    54    1
    20    55    11    1
    21    55    25    1
    22    54    52    1
    23    65    64    2
    24    62    30    1
    25    62    17    1
    26    62    63    1
    27    31    63    1
    28    52    53   ar
    29    52    51   ar
    30     9    53    1
    31    64    51    1
    32    64    66   am
    33     1    66    1
    34    63    18    1
    35    63    37    1
    36    53    48   ar
    37    51    50   ar
    38    66    19    1
    39    20    35    1
    40    37    38   ar
    41    37    36   ar
    42    48    38    1
    43    48    49   ar
    44    33    35    1
    45    50     8    1
    46    50    49   ar
    47    35    36    1
    48    35     2    1
    49    38    39   ar
    50    36    40   ar
    51    49     7    1
    52    39    40   ar
    53    39    45    1
    54    40    41    1
    55     5    46    1
    56     4    45    1
    57    45    22    1
    58    45    44    1
    59    23    46    1
    60    46    44    1
    61    46    34    1
    62    41    42    2
    63    41    43    1
    64    44    43    1
    65    44    47    1
    66    43     3    1
    67    43    21    1
    68    32    47    1
    69    47     6    1
    70    47    24    1
