@<TRIPOS>MOLECULE
154.00332
 66 70 0 0 0
SMALL
GASTEIGER

@<TRIPOS>ATOM
      1 H          -3.4360    4.1450   26.0500 H       1  UNL1        0.1453
      2 H           7.8690    2.2700   24.5380 H       1  UNL1        0.0278
      3 H           6.1760    0.6020   28.9340 H       1  UNL1        0.0350
      4 H           2.9960   -0.2970   26.9300 H       1  UNL1        0.0333
      5 H           5.5380   -1.2940   25.6330 H       1  UNL1        0.0235
      6 H           4.3670   -0.8590   29.7980 H       1  UNL1        0.0235
      7 H           1.7810    1.9020   27.4510 H       1  UNL1        0.0638
      8 H          -0.5990    2.3440   27.2620 H       1  UNL1        0.0626
      9 H           2.0900    1.9500   23.1420 H       1  UNL1        0.0657
     10 H          -1.1130    3.2740   22.5870 H       1  UNL1        0.1461
     11 H           0.9130    4.9300   23.6390 H       1  UNL1        0.0476
     12 H           2.1660    3.7800   21.5050 H       1  UNL1        0.0478
     13 H           0.0010    4.5830   20.0800 H       1  UNL1        0.0281
     14 H           0.1300    6.9280   20.7490 H       1  UNL1        0.0278
     15 H           2.2750    7.9060   21.2200 H       1  UNL1        0.0427
     16 H           4.5410    6.5090   21.7710 H       1  UNL1        0.0427
     17 H           4.3960    5.6120   24.0400 H       1  UNL1        0.0281
     18 H           2.9440    3.8530   23.6950 H       1  UNL1        0.0328
     19 H          -1.9770    3.9880   26.9740 H       1  UNL1        0.1453
     20 H           6.9170    3.0220   23.2770 H       1  UNL1        0.0278
     21 H           7.1090   -0.7120   28.2020 H       1  UNL1        0.0350
     22 H           3.5470    0.7960   28.2140 H       1  UNL1        0.0333
     23 H           4.2990   -2.3300   26.3450 H       1  UNL1        0.0235
     24 H           5.3010   -2.2590   29.2550 H       1  UNL1        0.0235
     25 H          -0.2960    5.3420   22.4540 H       1  UNL1        0.0476
     26 H           1.6430    4.6400   19.4120 H       1  UNL1        0.0281
     27 H           0.8770    6.9120   19.1390 H       1  UNL1        0.0278
     28 H           3.0660    6.8640   20.0220 H       1  UNL1        0.0427
     29 H           4.2540    4.9430   21.0320 H       1  UNL1        0.0427
     30 H           5.6550    4.8750   23.0640 H       1  UNL1        0.0281
     31 H           3.9980    2.9800   22.5450 H       1  UNL1        0.0328
     32 H           3.6090   -2.0800   28.7650 H       1  UNL1        0.0235
     33 H           7.2770    3.9270   24.7680 H       1  UNL1        0.0278
     34 H           5.9880   -2.4980   26.8420 H       1  UNL1        0.0235
     35 C           7.0250    2.9420   24.3630 C.3     1  UNL1       -0.0373
     36 C           5.7690    2.4320   24.9850 C.ar    1  UNL1       -0.0186
     37 C           4.4630    2.7020   24.5840 C.ar    1  UNL1        0.0277
     38 N           3.5840    1.9400   25.3900 N.ar    1  UNL1       -0.3161
     39 C           4.3560    1.2540   26.3130 C.ar    1  UNL1        0.0353
     40 C           5.6900    1.5590   26.1050 C.ar    1  UNL1        0.0416
     41 C           6.7450    0.9600   26.9240 C.2     1  UNL1        0.1657
     42 O           7.9320    1.2540   26.7970 O.2     1  UNL1       -0.2920
     43 C           6.2970    0.0030   28.0230 C.3     1  UNL1        0.0160
     44 C           4.9840   -0.7520   27.6990 C.3     1  UNL1       -0.0225
     45 C           3.8620    0.2530   27.3140 C.3     1  UNL1       -0.0057
     46 C           5.2170   -1.7710   26.5630 C.3     1  UNL1       -0.0591
     47 C           4.5400   -1.5320   28.9510 C.3     1  UNL1       -0.0591
     48 C           2.1480    1.9430   25.3070 C.ar    1  UNL1        0.0484
     49 C           1.3580    2.0020   26.4580 C.ar    1  UNL1       -0.0370
     50 C          -0.0050    2.3150   26.3540 C.ar    1  UNL1       -0.0459
     51 C          -0.5610    2.6770   25.1140 C.ar    1  UNL1        0.0574
     52 C           0.2290    2.5930   23.9510 C.ar    1  UNL1        0.0414
     53 C           1.5290    2.0910   24.0620 C.ar    1  UNL1       -0.0162
     54 N          -0.0990    3.2750   22.7510 N.pl3   1  UNL1       -0.3417
     55 C           0.5090    4.6270   22.6640 C.3     1  UNL1        0.0247
     56 C           1.6260    4.7270   21.5750 C.3     1  UNL1        0.0259
     57 C           0.9950    5.0220   20.2110 C.3     1  UNL1       -0.0347
     58 C           0.9660    6.5330   20.1610 C.3     1  UNL1       -0.0387
     59 C           2.2910    6.8950   20.7990 C.3     1  UNL1       -0.0007
     60 N           2.5360    5.8880   21.8570 N.3     1  UNL1       -0.2979
     61 C           3.9860    5.5680   21.8940 C.3     1  UNL1       -0.0004
     62 C           4.5710    4.9410   23.1890 C.3     1  UNL1       -0.0348
     63 C           3.9660    3.5810   23.4610 C.3     1  UNL1       -0.0105
     64 C          -1.9590    3.1880   25.0220 C.2     1  UNL1        0.2433
     65 O          -2.6120    3.1130   23.9880 O.2     1  UNL1       -0.2704
     66 N          -2.4910    3.7900   26.1300 N.am    1  UNL1       -0.3253
@<TRIPOS>BOND
     1    27    58    1
     2    26    57    1
     3    28    59    1
     4    13    57    1
     5    58    57    1
     6    58    14    1
     7    58    59    1
     8    57    56    1
     9    59    15    1
    10    59    60    1
    11    29    61    1
    12    12    56    1
    13    56    60    1
    14    56    55    1
    15    16    61    1
    16    60    61    1
    17    61    62    1
    18    25    55    1
    19    31    63    1
    20    10    54    1
    21    55    54    1
    22    55    11    1
    23    54    52    1
    24    30    62    1
    25     9    53    1
    26    62    63    1
    27    62    17    1
    28    20    35    1
    29    63    18    1
    30    63    37    1
    31    52    53   ar
    32    52    51   ar
    33    65    64    2
    34    53    48   ar
    35    35     2    1
    36    35    33    1
    37    35    36    1
    38    37    36   ar
    39    37    38   ar
    40    36    40   ar
    41    64    51    1
    42    64    66   am
    43    51    50   ar
    44    48    38    1
    45    48    49   ar
    46    38    39   ar
    47     5    46    1
    48     1    66    1
    49    40    39   ar
    50    40    41    1
    51    66    19    1
    52    39    45    1
    53    23    46    1
    54    50    49   ar
    55    50     8    1
    56    49     7    1
    57    46    34    1
    58    46    44    1
    59    42    41    2
    60    41    43    1
    61     4    45    1
    62    45    44    1
    63    45    22    1
    64    44    43    1
    65    44    47    1
    66    43    21    1
    67    43     3    1
    68    32    47    1
    69    47    24    1
    70    47     6    1
