@<TRIPOS>MOLECULE
152.36750
 66 70 0 0 0
SMALL
GASTEIGER

@<TRIPOS>ATOM
      1 H          -3.4160   12.0630   25.7870 H       1  UNL1        0.1453
      2 H           7.7750    9.6450   24.9030 H       1  UNL1        0.0278
      3 H           6.4170   12.5970   21.4580 H       1  UNL1        0.0350
      4 H           3.7300   14.1790   23.7610 H       1  UNL1        0.0333
      5 H           6.5420   14.6700   24.7080 H       1  UNL1        0.0235
      6 H           4.8290   14.3610   20.7240 H       1  UNL1        0.0235
      7 H           2.8490   14.0750   26.0420 H       1  UNL1        0.0638
      8 H           0.4380   14.3480   26.5090 H       1  UNL1        0.0626
      9 H           2.0900   10.0720   24.6510 H       1  UNL1        0.0657
     10 H           0.1840    9.0330   25.2500 H       1  UNL1        0.1461
     11 H          -1.3000    8.4300   26.8640 H       1  UNL1        0.0476
     12 H           0.5690   10.3160   28.4240 H       1  UNL1        0.0478
     13 H          -1.7410    9.3620   29.4780 H       1  UNL1        0.0281
     14 H          -1.3470    7.0340   28.8590 H       1  UNL1        0.0278
     15 H           0.9060    6.1990   28.7810 H       1  UNL1        0.0427
     16 H           3.1930    7.8070   28.4500 H       1  UNL1        0.0427
     17 H           2.2880   10.3880   27.2540 H       1  UNL1        0.0281
     18 H           4.4080   10.9130   28.0640 H       1  UNL1        0.0328
     19 H          -2.1630   11.1350   24.9910 H       1  UNL1        0.1453
     20 H           7.8430   10.5100   26.4550 H       1  UNL1        0.0278
     21 H           7.6630   13.7220   22.0200 H       1  UNL1        0.0350
     22 H           3.8650   12.9640   22.4880 H       1  UNL1        0.0333
     23 H           5.4580   15.9160   24.0840 H       1  UNL1        0.0235
     24 H           6.0760   15.5610   21.0880 H       1  UNL1        0.0235
     25 H          -1.6800   10.0770   27.2730 H       1  UNL1        0.0476
     26 H          -0.2310    9.4170   30.4040 H       1  UNL1        0.0281
     27 H          -0.8950    7.1010   30.5760 H       1  UNL1        0.0278
     28 H           1.4120    7.2880   30.0850 H       1  UNL1        0.0427
     29 H           2.6260    9.2260   29.3470 H       1  UNL1        0.0427
     30 H           2.8540    8.9580   26.3170 H       1  UNL1        0.0281
     31 H           5.0780    9.3930   27.5020 H       1  UNL1        0.0328
     32 H           4.4510   15.7390   21.7690 H       1  UNL1        0.0235
     33 H           6.8570    9.0450   26.2710 H       1  UNL1        0.0278
     34 H           7.0770   15.7260   23.3990 H       1  UNL1        0.0235
     35 C           7.1880    9.9600   25.7720 C.3     1  UNL1       -0.0373
     36 C           6.0360   10.8150   25.3620 C.ar    1  UNL1       -0.0186
     37 C           4.7690   10.8690   25.9540 C.ar    1  UNL1        0.0277
     38 N           4.0010   11.7860   25.2110 N.ar    1  UNL1       -0.3161
     39 C           4.8210   12.3910   24.2810 C.ar    1  UNL1        0.0353
     40 C           6.0620   11.7870   24.3220 C.ar    1  UNL1        0.0416
     41 C           7.1320   12.1890   23.4120 C.2     1  UNL1        0.1657
     42 O           8.2630   11.7100   23.4660 O.2     1  UNL1       -0.2920
     43 C           6.7540   13.1860   22.3210 C.3     1  UNL1        0.0160
     44 C           5.6560   14.1940   22.7450 C.3     1  UNL1       -0.0225
     45 C           4.4100   13.4510   23.3070 C.3     1  UNL1       -0.0057
     46 C           6.2150   15.1780   23.7950 C.3     1  UNL1       -0.0591
     47 C           5.2280   15.0110   21.5110 C.3     1  UNL1       -0.0591
     48 C           2.6110   12.0430   25.3260 C.ar    1  UNL1        0.0484
     49 C           2.1640   13.2560   25.8380 C.ar    1  UNL1       -0.0370
     50 C           0.8080   13.3940   26.1360 C.ar    1  UNL1       -0.0459
     51 C          -0.0770   12.3010   26.0150 C.ar    1  UNL1        0.0574
     52 C           0.3950   11.0520   25.5650 C.ar    1  UNL1        0.0414
     53 C           1.7110   11.0020   25.0700 C.ar    1  UNL1       -0.0162
     54 N          -0.2390    9.8170   25.7420 N.pl3   1  UNL1       -0.3417
     55 C          -0.8460    9.4150   27.0280 C.3     1  UNL1        0.0247
     56 C           0.1160    9.3310   28.2660 C.3     1  UNL1        0.0259
     57 C          -0.7120    8.9920   29.5130 C.3     1  UNL1       -0.0347
     58 C          -0.6530    7.4820   29.5800 C.3     1  UNL1       -0.0387
     59 C           0.7830    7.2070   29.1880 C.3     1  UNL1       -0.0007
     60 N           1.1300    8.2290   28.1810 N.3     1  UNL1       -0.2979
     61 C           2.5310    8.6800   28.4000 C.3     1  UNL1       -0.0004
     62 C           2.9700    9.5470   27.2330 C.3     1  UNL1       -0.0348
     63 C           4.3510   10.1740   27.2550 C.3     1  UNL1       -0.0105
     64 C          -1.5040   12.5810   26.3300 C.2     1  UNL1        0.2433
     65 O          -1.8330   13.4360   27.1430 O.2     1  UNL1       -0.2704
     66 N          -2.4380   11.8780   25.6230 N.am    1  UNL1       -0.3253
@<TRIPOS>BOND
     1     6    47    1
     2    24    47    1
     3     3    43    1
     4    47    32    1
     5    47    44    1
     6    21    43    1
     7    43    44    1
     8    43    41    1
     9    22    45    1
    10    44    45    1
    11    44    46    1
    12    45     4    1
    13    45    39    1
    14    34    46    1
    15    41    42    2
    16    41    40    1
    17    46    23    1
    18    46     5    1
    19    39    40   ar
    20    39    38   ar
    21    40    36   ar
    22     9    53    1
    23     2    35    1
    24    19    66    1
    25    53    48   ar
    26    53    52   ar
    27    38    48    1
    28    38    37   ar
    29    10    54    1
    30    48    49   ar
    31    36    35    1
    32    36    37   ar
    33    52    54    1
    34    52    51   ar
    35    66     1    1
    36    66    64   am
    37    54    55    1
    38    35    33    1
    39    35    20    1
    40    49     7    1
    41    49    50   ar
    42    37    63    1
    43    51    50   ar
    44    51    64    1
    45    50     8    1
    46    30    62    1
    47    64    65    2
    48    11    55    1
    49    55    25    1
    50    55    56    1
    51    62    17    1
    52    62    63    1
    53    62    61    1
    54    63    31    1
    55    63    18    1
    56    60    56    1
    57    60    61    1
    58    60    59    1
    59    56    12    1
    60    56    57    1
    61    61    16    1
    62    61    29    1
    63    15    59    1
    64    14    58    1
    65    59    58    1
    66    59    28    1
    67    13    57    1
    68    57    58    1
    69    57    26    1
    70    58    27    1
