@<TRIPOS>MOLECULE
144.76844
 66 70 0 0 0
SMALL
GASTEIGER

@<TRIPOS>ATOM
      1 H          -3.4060   10.4890   25.3610 H       1  UNL1        0.1453
      2 H           7.2280    9.2990   21.9140 H       1  UNL1        0.0278
      3 H           5.6630   13.7810   21.1670 H       1  UNL1        0.0350
      4 H           3.6290   13.6150   24.4560 H       1  UNL1        0.0333
      5 H           6.6130   13.4010   24.8890 H       1  UNL1        0.0235
      6 H           4.2470   15.6400   22.0080 H       1  UNL1        0.0235
      7 H           1.7430   12.0120   23.0700 H       1  UNL1        0.0638
      8 H          -0.5410   11.9810   23.9110 H       1  UNL1        0.0626
      9 H           3.0680    9.9730   26.6270 H       1  UNL1        0.0657
     10 H          -0.3280    9.5240   27.8880 H       1  UNL1        0.1461
     11 H           0.8220    8.0000   29.0200 H       1  UNL1        0.0476
     12 H           3.2680    7.8190   27.3470 H       1  UNL1        0.0478
     13 H           2.2270    6.2380   29.3390 H       1  UNL1        0.0281
     14 H           0.6040    4.8530   28.4000 H       1  UNL1        0.0278
     15 H          -0.2210    6.4790   26.9400 H       1  UNL1        0.0427
     16 H           2.1240    5.8390   24.5100 H       1  UNL1        0.0427
     17 H           2.3600    8.3280   23.9940 H       1  UNL1        0.0281
     18 H           4.3420    8.5730   25.8940 H       1  UNL1        0.0328
     19 H          -2.2080   10.5200   24.1030 H       1  UNL1        0.1453
     20 H           7.7360    9.1840   23.6140 H       1  UNL1        0.0278
     21 H           7.1310   14.3120   22.0040 H       1  UNL1        0.0350
     22 H           3.4180   13.4600   22.7030 H       1  UNL1        0.0333
     23 H           5.6220   14.7730   25.3920 H       1  UNL1        0.0235
     24 H           5.6900   16.3460   22.7480 H       1  UNL1        0.0235
     25 H           2.1950    9.0800   28.8970 H       1  UNL1        0.0476
     26 H           3.3740    5.6730   28.1260 H       1  UNL1        0.0281
     27 H           1.8270    4.2880   27.2490 H       1  UNL1        0.0278
     28 H           0.3520    5.3660   25.7130 H       1  UNL1        0.0427
     29 H           3.4530    5.9720   25.6440 H       1  UNL1        0.0427
     30 H           3.4840    7.1920   23.3160 H       1  UNL1        0.0281
     31 H           5.2600    7.7330   24.7210 H       1  UNL1        0.0328
     32 H           4.2370   16.0750   23.7230 H       1  UNL1        0.0235
     33 H           6.5570    8.0420   22.9370 H       1  UNL1        0.0278
     34 H           7.0650   15.0370   24.4060 H       1  UNL1        0.0235
     35 C           6.8870    9.0850   22.9310 C.3     1  UNL1       -0.0373
     36 C           5.7890   10.0110   23.3360 C.ar    1  UNL1       -0.0186
     37 C           4.6920    9.7180   24.1480 C.ar    1  UNL1        0.0277
     38 N           3.8820   10.8620   24.2210 N.ar    1  UNL1       -0.3161
     39 C           4.5450   11.8850   23.5600 C.ar    1  UNL1        0.0353
     40 C           5.7070   11.3880   23.0020 C.ar    1  UNL1        0.0416
     41 C           6.6320   12.2510   22.2690 C.2     1  UNL1        0.1657
     42 O           7.6660   11.8290   21.7550 O.2     1  UNL1       -0.2920
     43 C           6.2190   13.7100   22.1100 C.3     1  UNL1        0.0160
     44 C           5.3600   14.2490   23.2830 C.3     1  UNL1       -0.0225
     45 C           4.1320   13.3270   23.5250 C.3     1  UNL1       -0.0057
     46 C           6.2130   14.3660   24.5630 C.3     1  UNL1       -0.0591
     47 C           4.8540   15.6580   22.9200 C.3     1  UNL1       -0.0591
     48 C           2.5710   10.9540   24.7800 C.ar    1  UNL1        0.0484
     49 C           1.5520   11.5570   24.0380 C.ar    1  UNL1       -0.0370
     50 C           0.2370   11.5000   24.4950 C.ar    1  UNL1       -0.0459
     51 C          -0.0750   10.7960   25.6710 C.ar    1  UNL1        0.0574
     52 C           0.9470   10.2050   26.4540 C.ar    1  UNL1        0.0414
     53 C           2.2670   10.3490   26.0050 C.ar    1  UNL1       -0.0162
     54 N           0.6330    9.4220   27.5500 N.pl3   1  UNL1       -0.3417
     55 C           1.4790    8.5020   28.3000 C.3     1  UNL1        0.0247
     56 C           2.2600    7.4240   27.4730 C.3     1  UNL1        0.0259
     57 C           2.3770    6.1110   28.2620 C.3     1  UNL1       -0.0347
     58 C           1.3370    5.1800   27.6560 C.3     1  UNL1       -0.0387
     59 C           0.6810    5.9900   26.5510 C.3     1  UNL1       -0.0007
     60 N           1.6540    7.0270   26.1770 N.3     1  UNL1       -0.2979
     61 C           2.6340    6.5390   25.1850 C.3     1  UNL1       -0.0004
     62 C           3.1790    7.6540   24.2650 C.3     1  UNL1       -0.0348
     63 C           4.3930    8.3990   24.8230 C.3     1  UNL1       -0.0105
     64 C          -1.5060   10.6680   26.0810 C.2     1  UNL1        0.2433
     65 O          -1.8520   10.5930   27.2550 O.2     1  UNL1       -0.2704
     66 N          -2.4410   10.5980   25.0820 N.am    1  UNL1       -0.3253
@<TRIPOS>BOND
     1     3    43    1
     2    42    41    2
     3     2    35    1
     4    21    43    1
     5     6    47    1
     6    43    41    1
     7    43    44    1
     8    41    40    1
     9    22    45    1
    10    24    47    1
    11    47    44    1
    12    47    32    1
    13    35    33    1
    14    35    36    1
    15    35    20    1
    16    40    36   ar
    17    40    39   ar
    18     7    49    1
    19    44    45    1
    20    44    46    1
    21    30    62    1
    22    36    37   ar
    23    45    39    1
    24    45     4    1
    25    39    38   ar
    26     8    50    1
    27    17    62    1
    28    49    50   ar
    29    49    48   ar
    30    19    66    1
    31    37    38   ar
    32    37    63    1
    33    38    48    1
    34    62    63    1
    35    62    61    1
    36    34    46    1
    37    50    51   ar
    38    16    61    1
    39    46     5    1
    40    46    23    1
    41    31    63    1
    42    48    53   ar
    43    63    18    1
    44    66     1    1
    45    66    64   am
    46    61    29    1
    47    61    60    1
    48    51    64    1
    49    51    52   ar
    50    28    59    1
    51    53    52   ar
    52    53     9    1
    53    64    65    2
    54    60    59    1
    55    60    56    1
    56    52    54    1
    57    59    15    1
    58    59    58    1
    59    27    58    1
    60    12    56    1
    61    56    57    1
    62    56    55    1
    63    54    10    1
    64    54    55    1
    65    58    57    1
    66    58    14    1
    67    26    57    1
    68    57    13    1
    69    55    25    1
    70    55    11    1
