@<TRIPOS>MOLECULE
139.39585
 66 70 0 0 0
SMALL
GASTEIGER

@<TRIPOS>ATOM
      1 H          -3.5490   11.7590   24.5700 H       1  UNL1        0.1453
      2 H           7.7610    9.6590   23.5880 H       1  UNL1        0.0278
      3 H           6.4750   13.8430   21.6370 H       1  UNL1        0.0350
      4 H           3.4750   14.0770   24.0790 H       1  UNL1        0.0333
      5 H           6.1400   14.2580   25.4600 H       1  UNL1        0.0235
      6 H           4.7850   15.6640   21.5750 H       1  UNL1        0.0235
      7 H           2.0160   12.0630   22.6550 H       1  UNL1        0.0638
      8 H          -0.3700   12.3650   23.1080 H       1  UNL1        0.0626
      9 H           2.6540   11.0790   26.7780 H       1  UNL1        0.0657
     10 H          -0.7730   11.5460   27.7310 H       1  UNL1        0.1461
     11 H           0.1870    9.0320   27.3950 H       1  UNL1        0.0476
     12 H           2.1710   10.6180   29.0640 H       1  UNL1        0.0478
     13 H           0.7110    9.1520   30.7580 H       1  UNL1        0.0281
     14 H           0.5100    7.1690   29.3870 H       1  UNL1        0.0278
     15 H           2.1130    6.7210   27.7550 H       1  UNL1        0.0427
     16 H           4.5400    8.9250   28.9520 H       1  UNL1        0.0427
     17 H           5.8260    8.9200   26.8880 H       1  UNL1        0.0281
     18 H           4.5080    8.1920   24.7350 H       1  UNL1        0.0328
     19 H          -2.2560   11.3200   23.4990 H       1  UNL1        0.1453
     20 H           7.8660   10.0260   25.3250 H       1  UNL1        0.0278
     21 H           7.5570   14.6710   22.7680 H       1  UNL1        0.0350
     22 H           3.8400   13.5810   22.4180 H       1  UNL1        0.0333
     23 H           4.9900   15.5900   25.3220 H       1  UNL1        0.0235
     24 H           5.8720   16.6430   22.5700 H       1  UNL1        0.0235
     25 H          -0.4450    9.6860   28.8850 H       1  UNL1        0.0476
     26 H           2.4750    9.0130   30.8000 H       1  UNL1        0.0281
     27 H           1.8030    6.7240   30.5170 H       1  UNL1        0.0278
     28 H           3.4460    6.9540   28.8850 H       1  UNL1        0.0427
     29 H           4.1050   10.2920   27.9660 H       1  UNL1        0.0427
     30 H           4.7750    7.5220   26.9040 H       1  UNL1        0.0281
     31 H           3.1030    8.9180   25.4350 H       1  UNL1        0.0328
     32 H           4.1890   16.4060   23.0660 H       1  UNL1        0.0235
     33 H           6.9290    8.6340   24.7490 H       1  UNL1        0.0278
     34 H           6.6690   15.8140   24.8150 H       1  UNL1        0.0235
     35 C           7.2030    9.6700   24.5300 C.3     1  UNL1       -0.0373
     36 C           6.0060   10.5540   24.4240 C.ar    1  UNL1       -0.0186
     37 C           4.7050   10.2810   24.8560 C.ar    1  UNL1        0.0277
     38 N           3.8910   11.3570   24.4800 N.ar    1  UNL1       -0.3161
     39 C           4.6940   12.3120   23.8790 C.ar    1  UNL1        0.0353
     40 C           5.9940   11.8470   23.8380 C.ar    1  UNL1        0.0416
     41 C           7.0780   12.6540   23.2860 C.2     1  UNL1        0.1657
     42 O           8.2400   12.2540   23.2310 O.2     1  UNL1       -0.2920
     43 C           6.6870   14.0070   22.7010 C.3     1  UNL1        0.0160
     44 C           5.4640   14.6580   23.3980 C.3     1  UNL1       -0.0225
     45 C           4.2600   13.6740   23.4280 C.3     1  UNL1       -0.0057
     46 C           5.8370   15.1000   24.8290 C.3     1  UNL1       -0.0591
     47 C           5.0540   15.9150   22.6070 C.3     1  UNL1       -0.0591
     48 C           2.4910   11.4900   24.6900 C.ar    1  UNL1        0.0484
     49 C           1.6420   11.8880   23.6600 C.ar    1  UNL1       -0.0370
     50 C           0.2750   12.0340   23.9170 C.ar    1  UNL1       -0.0459
     51 C          -0.2480   11.7790   25.2010 C.ar    1  UNL1        0.0574
     52 C           0.6130   11.4080   26.2570 C.ar    1  UNL1        0.0414
     53 C           1.9730   11.2750   25.9660 C.ar    1  UNL1       -0.0162
     54 N           0.1520   11.1370   27.5490 N.pl3   1  UNL1       -0.3417
     55 C           0.3580    9.8130   28.1480 C.3     1  UNL1        0.0247
     56 C           1.7360    9.6320   28.8620 C.3     1  UNL1        0.0259
     57 C           1.5880    8.8610   30.1720 C.3     1  UNL1       -0.0347
     58 C           1.5240    7.4190   29.7190 C.3     1  UNL1       -0.0387
     59 C           2.4910    7.3740   28.5480 C.3     1  UNL1       -0.0007
     60 N           2.6240    8.7570   28.0500 N.3     1  UNL1       -0.2979
     61 C           4.0260    9.2010   28.0220 C.3     1  UNL1       -0.0004
     62 C           4.7760    8.6160   26.8160 C.3     1  UNL1       -0.0348
     63 C           4.1940    8.9780   25.4360 C.3     1  UNL1       -0.0105
     64 C          -1.7140   11.9210   25.4450 C.2     1  UNL1        0.2433
     65 O          -2.1710   12.2140   26.5450 O.2     1  UNL1       -0.2704
     66 N          -2.5560   11.6740   24.3940 N.am    1  UNL1       -0.3253
@<TRIPOS>BOND
     1     6    47    1
     2     3    43    1
     3    22    45    1
     4    24    47    1
     5    47    32    1
     6    47    44    1
     7     7    49    1
     8    43    21    1
     9    43    41    1
    10    43    44    1
    11     8    50    1
    12    42    41    2
    13    41    40    1
    14    44    45    1
    15    44    46    1
    16    45    39    1
    17    45     4    1
    18    19    66    1
    19     2    35    1
    20    49    50   ar
    21    49    48   ar
    22    40    39   ar
    23    40    36   ar
    24    39    38   ar
    25    50    51   ar
    26    66     1    1
    27    66    64   am
    28    36    35    1
    29    36    37   ar
    30    38    48    1
    31    38    37   ar
    32    35    33    1
    33    35    20    1
    34    48    53   ar
    35    18    63    1
    36    34    46    1
    37    46    23    1
    38    46     5    1
    39    37    63    1
    40    51    64    1
    41    51    52   ar
    42    31    63    1
    43    63    62    1
    44    64    65    2
    45    53    52   ar
    46    53     9    1
    47    52    54    1
    48    62    17    1
    49    62    30    1
    50    62    61    1
    51    11    55    1
    52    54    10    1
    53    54    55    1
    54    15    59    1
    55    29    61    1
    56    61    60    1
    57    61    16    1
    58    60    59    1
    59    60    56    1
    60    55    56    1
    61    55    25    1
    62    59    28    1
    63    59    58    1
    64    56    12    1
    65    56    57    1
    66    14    58    1
    67    58    57    1
    68    58    27    1
    69    57    13    1
    70    57    26    1
