@<TRIPOS>MOLECULE
147.11792
 66 70 0 0 0
SMALL
GASTEIGER

@<TRIPOS>ATOM
      1 H          -3.6610    6.2010   22.1630 H       1  UNL1        0.1453
      2 H           4.5160   10.3120   28.4460 H       1  UNL1        0.0278
      3 H           1.8560    7.9370   31.9030 H       1  UNL1        0.0350
      4 H           0.2980    5.7150   29.1250 H       1  UNL1        0.0333
      5 H           3.2110    5.1410   29.6170 H       1  UNL1        0.0235
      6 H          -0.0020    6.3400   32.2900 H       1  UNL1        0.0235
      7 H          -0.8150    9.0220   26.4950 H       1  UNL1        0.0638
      8 H          -2.5090    8.1180   24.9470 H       1  UNL1        0.0626
      9 H           1.0770    5.1410   26.6620 H       1  UNL1        0.0657
     10 H          -1.0360    3.5740   24.4030 H       1  UNL1        0.1461
     11 H           0.3640    5.1180   22.8210 H       1  UNL1        0.0476
     12 H           2.3890    3.9310   24.7280 H       1  UNL1        0.0478
     13 H           2.5790    3.4330   21.7210 H       1  UNL1        0.0281
     14 H           4.8020    3.9390   21.7720 H       1  UNL1        0.0278
     15 H           4.9570    5.9500   22.9670 H       1  UNL1        0.0427
     16 H           2.6590    6.0980   25.4200 H       1  UNL1        0.0427
     17 H           3.3080    8.3450   23.5010 H       1  UNL1        0.0281
     18 H           2.9460    9.8540   25.3830 H       1  UNL1        0.0328
     19 H          -2.7300    7.5150   22.8120 H       1  UNL1        0.1453
     20 H           5.4030    8.8020   28.1360 H       1  UNL1        0.0278
     21 H           3.1540    6.7720   32.2040 H       1  UNL1        0.0350
     22 H          -0.0440    7.2070   30.0030 H       1  UNL1        0.0333
     23 H           1.8880    4.0370   30.0040 H       1  UNL1        0.0235
     24 H           1.2040    5.1490   32.7950 H       1  UNL1        0.0235
     25 H           0.4390    3.3730   22.7910 H       1  UNL1        0.0476
     26 H           2.8930    2.3000   23.0460 H       1  UNL1        0.0281
     27 H           5.0450    3.1630   23.3450 H       1  UNL1        0.0278
     28 H           4.7020    5.1070   24.5120 H       1  UNL1        0.0427
     29 H           1.4950    6.7850   24.2300 H       1  UNL1        0.0427
     30 H           4.2720    7.7840   24.8720 H       1  UNL1        0.0281
     31 H           1.4580    9.0410   25.0000 H       1  UNL1        0.0328
     32 H           0.0110    4.7300   31.5550 H       1  UNL1        0.0235
     33 H           4.7820    9.7550   26.7880 H       1  UNL1        0.0278
     34 H           3.0740    4.4650   31.2430 H       1  UNL1        0.0235
     35 C           4.5640    9.4240   27.8070 C.3     1  UNL1       -0.0373
     36 C           3.2860    8.6600   27.8890 C.ar    1  UNL1       -0.0186
     37 C           2.3640    8.4330   26.8680 C.ar    1  UNL1        0.0277
     38 N           1.3180    7.6680   27.4000 N.ar    1  UNL1       -0.3161
     39 C           1.6160    7.3710   28.7110 C.ar    1  UNL1        0.0353
     40 C           2.7970    8.0000   29.0510 C.ar    1  UNL1        0.0416
     41 C           3.3490    7.9010   30.3990 C.2     1  UNL1        0.1657
     42 O           4.4110    8.4320   30.7180 O.2     1  UNL1       -0.2920
     43 C           2.4890    7.1760   31.4310 C.3     1  UNL1        0.0160
     44 C           1.6100    6.0420   30.8380 C.3     1  UNL1       -0.0225
     45 C           0.7660    6.5610   29.6390 C.3     1  UNL1       -0.0057
     46 C           2.4970    4.8580   30.3980 C.3     1  UNL1       -0.0591
     47 C           0.6510    5.5360   31.9320 C.3     1  UNL1       -0.0591
     48 C           0.2230    7.1340   26.6790 C.ar    1  UNL1        0.0484
     49 C          -0.7680    7.9800   26.1890 C.ar    1  UNL1       -0.0370
     50 C          -1.7060    7.4700   25.2870 C.ar    1  UNL1       -0.0459
     51 C          -1.5820    6.1550   24.7990 C.ar    1  UNL1        0.0574
     52 C          -0.5510    5.3130   25.2740 C.ar    1  UNL1        0.0414
     53 C           0.2810    5.7860   26.2940 C.ar    1  UNL1       -0.0162
     54 N          -0.1880    4.1120   24.6260 N.pl3   1  UNL1       -0.3417
     55 C           0.6660    4.2470   23.4150 C.3     1  UNL1        0.0247
     56 C           2.1970    4.2710   23.7000 C.3     1  UNL1        0.0259
     57 C           2.9630    3.3500   22.7460 C.3     1  UNL1       -0.0347
     58 C           4.4020    3.8530   22.7880 C.3     1  UNL1       -0.0387
     59 C           4.3380    5.2070   23.4810 C.3     1  UNL1       -0.0007
     60 N           2.9170    5.5580   23.4360 N.3     1  UNL1       -0.2979
     61 C           2.5410    6.5540   24.4340 C.3     1  UNL1       -0.0004
     62 C           3.2470    7.9060   24.5040 C.3     1  UNL1       -0.0348
     63 C           2.4560    8.8730   25.4180 C.3     1  UNL1       -0.0105
     64 C          -2.5290    5.6480   23.7670 C.2     1  UNL1        0.2433
     65 O          -2.8360    4.4630   23.6940 O.2     1  UNL1       -0.2704
     66 N          -3.0270    6.5520   22.8690 N.am    1  UNL1       -0.3253
@<TRIPOS>BOND
     1    13    57    1
     2    14    58    1
     3     1    66    1
     4    57    58    1
     5    57    26    1
     6    57    56    1
     7    58    27    1
     8    58    59    1
     9    25    55    1
    10    19    66    1
    11    11    55    1
    12    66    64   am
    13    15    59    1
    14    55    56    1
    15    55    54    1
    16    60    59    1
    17    60    56    1
    18    60    61    1
    19    59    28    1
    20    17    62    1
    21    65    64    2
    22    56    12    1
    23    64    51    1
    24    29    61    1
    25    10    54    1
    26    61    62    1
    27    61    16    1
    28    62    30    1
    29    62    63    1
    30    54    52    1
    31    51    52   ar
    32    51    50   ar
    33     8    50    1
    34    31    63    1
    35    52    53   ar
    36    50    49   ar
    37    18    63    1
    38    63    37    1
    39    49     7    1
    40    49    48   ar
    41    53     9    1
    42    53    48   ar
    43    48    38    1
    44    33    35    1
    45    37    38   ar
    46    37    36   ar
    47    38    39   ar
    48    35    36    1
    49    35    20    1
    50    35     2    1
    51    36    40   ar
    52    39    40   ar
    53    39    45    1
    54    40    41    1
    55     4    45    1
    56     5    46    1
    57    45    22    1
    58    45    44    1
    59    23    46    1
    60    46    44    1
    61    46    34    1
    62    41    42    2
    63    41    43    1
    64    44    43    1
    65    44    47    1
    66    43     3    1
    67    43    21    1
    68    32    47    1
    69    47     6    1
    70    47    24    1
