@<TRIPOS>MOLECULE
145.68212
 66 70 0 0 0
SMALL
GASTEIGER

@<TRIPOS>ATOM
      1 H          -4.1220   10.1390   25.9770 H       1  UNL1        0.1453
      2 H           6.3200   12.7950   26.2940 H       1  UNL1        0.0278
      3 H           6.2800    7.8080   25.1990 H       1  UNL1        0.0350
      4 H           3.0810    8.4440   23.0800 H       1  UNL1        0.0333
      5 H           5.5840    9.5040   21.8050 H       1  UNL1        0.0235
      6 H           4.8690    5.9940   24.2680 H       1  UNL1        0.0235
      7 H           1.3090   11.8310   22.5020 H       1  UNL1        0.0638
      8 H          -1.1450   11.7480   22.7960 H       1  UNL1        0.0626
      9 H           1.8190    9.5420   26.1090 H       1  UNL1        0.0657
     10 H          -0.0470    9.0940   27.4230 H       1  UNL1        0.1461
     11 H          -1.4950   10.9830   28.4800 H       1  UNL1        0.0476
     12 H           0.4710   12.2570   29.2360 H       1  UNL1        0.0478
     13 H          -0.0110    9.4520   29.7240 H       1  UNL1        0.0281
     14 H           2.0530    8.7670   28.7680 H       1  UNL1        0.0278
     15 H           3.8150   10.3840   28.3750 H       1  UNL1        0.0427
     16 H           3.5190   12.7110   27.5360 H       1  UNL1        0.0427
     17 H           1.4720   14.2570   26.4880 H       1  UNL1        0.0281
     18 H           2.2790   13.6650   24.2260 H       1  UNL1        0.0328
     19 H          -2.5400    9.5810   26.5070 H       1  UNL1        0.1453
     20 H           6.9470   12.8290   24.6300 H       1  UNL1        0.0278
     21 H           7.3310    7.9580   23.7810 H       1  UNL1        0.0350
     22 H           3.5400    7.9870   24.7260 H       1  UNL1        0.0333
     23 H           4.6520    8.1360   21.1910 H       1  UNL1        0.0235
     24 H           5.9690    5.9260   22.8850 H       1  UNL1        0.0235
     25 H          -0.8280   11.9620   27.1960 H       1  UNL1        0.0476
     26 H           0.7730   10.6570   30.7510 H       1  UNL1        0.0281
     27 H           2.5930    9.1860   30.4050 H       1  UNL1        0.0278
     28 H           3.2370   11.4220   29.7060 H       1  UNL1        0.0427
     29 H           2.1990   13.4200   28.4260 H       1  UNL1        0.0427
     30 H           0.9560   12.6860   26.0050 H       1  UNL1        0.0281
     31 H           3.5170   14.1650   25.3410 H       1  UNL1        0.0328
     32 H           4.2250    6.0920   22.6230 H       1  UNL1        0.0235
     33 H           5.6880   13.9560   25.1110 H       1  UNL1        0.0278
     34 H           6.3910    7.9710   21.4670 H       1  UNL1        0.0235
     35 C           6.0460   12.9310   25.2430 C.3     1  UNL1       -0.0373
     36 C           5.0160   11.9270   24.8480 C.ar    1  UNL1       -0.0186
     37 C           3.6340   12.1080   24.7740 C.ar    1  UNL1        0.0277
     38 N           3.0730   10.9140   24.3260 N.ar    1  UNL1       -0.3161
     39 C           4.0690    9.9690   24.2270 C.ar    1  UNL1        0.0353
     40 C           5.2760   10.5620   24.5330 C.ar    1  UNL1        0.0416
     41 C           6.5200    9.7990   24.5070 C.2     1  UNL1        0.1657
     42 O           7.6100   10.2980   24.7780 O.2     1  UNL1       -0.2920
     43 C           6.3890    8.3030   24.2250 C.3     1  UNL1        0.0160
     44 C           5.1970    7.9320   23.3020 C.3     1  UNL1       -0.0225
     45 C           3.8700    8.5400   23.8360 C.3     1  UNL1       -0.0057
     46 C           5.4710    8.4170   21.8630 C.3     1  UNL1       -0.0591
     47 C           5.0570    6.3980   23.2670 C.3     1  UNL1       -0.0591
     48 C           1.6920   10.6410   24.2690 C.ar    1  UNL1        0.0484
     49 C           0.8820   11.2860   23.3390 C.ar    1  UNL1       -0.0370
     50 C          -0.5000   11.2570   23.5240 C.ar    1  UNL1       -0.0459
     51 C          -1.0590   10.6870   24.6860 C.ar    1  UNL1        0.0574
     52 C          -0.2160   10.0730   25.6430 C.ar    1  UNL1        0.0414
     53 C           1.1500    9.9620   25.3600 C.ar    1  UNL1       -0.0162
     54 N          -0.5910    9.8370   26.9900 N.pl3   1  UNL1       -0.3417
     55 C          -0.6310   11.0750   27.8100 C.3     1  UNL1        0.0247
     56 C           0.6380   11.3190   28.6900 C.3     1  UNL1        0.0259
     57 C           0.7810   10.2070   29.7500 C.3     1  UNL1       -0.0347
     58 C           2.1400    9.5850   29.4930 C.3     1  UNL1       -0.0387
     59 C           2.9260   10.7350   28.9090 C.3     1  UNL1       -0.0007
     60 N           1.9570   11.3610   27.9980 N.3     1  UNL1       -0.2979
     61 C           2.4240   12.7100   27.6190 C.3     1  UNL1       -0.0004
     62 C           1.8450   13.2410   26.3000 C.3     1  UNL1       -0.0348
     63 C           2.8280   13.3410   25.1190 C.3     1  UNL1       -0.0105
     64 C          -2.5430   10.7980   24.8380 C.2     1  UNL1        0.2433
     65 O          -3.2260   11.4720   24.0740 O.2     1  UNL1       -0.2704
     66 N          -3.1220   10.0990   25.8540 N.am    1  UNL1       -0.3253
@<TRIPOS>BOND
     1    23    46    1
     2    34    46    1
     3     5    46    1
     4    46    44    1
     5     7    49    1
     6    32    47    1
     7     8    50    1
     8    24    47    1
     9     4    45    1
    10    47    44    1
    11    47     6    1
    12    44    45    1
    13    44    43    1
    14    49    50   ar
    15    49    48   ar
    16    50    51   ar
    17    21    43    1
    18    45    39    1
    19    45    22    1
    20    65    64    2
    21    43    41    1
    22    43     3    1
    23    18    63    1
    24    39    38   ar
    25    39    40   ar
    26    48    38    1
    27    48    53   ar
    28    38    37   ar
    29    41    40    1
    30    41    42    2
    31    40    36   ar
    32    20    35    1
    33    51    64    1
    34    51    52   ar
    35    37    36   ar
    36    37    63    1
    37    64    66   am
    38    36    35    1
    39    33    35    1
    40    63    31    1
    41    63    62    1
    42    35     2    1
    43    53    52   ar
    44    53     9    1
    45    52    54    1
    46    66     1    1
    47    66    19    1
    48    30    62    1
    49    62    17    1
    50    62    61    1
    51    54    10    1
    52    54    55    1
    53    25    55    1
    54    16    61    1
    55    61    60    1
    56    61    29    1
    57    55    11    1
    58    55    56    1
    59    60    56    1
    60    60    59    1
    61    15    59    1
    62    56    12    1
    63    56    57    1
    64    14    58    1
    65    59    58    1
    66    59    28    1
    67    58    57    1
    68    58    27    1
    69    13    57    1
    70    57    26    1
