@<TRIPOS>MOLECULE
153.98591
 66 70 0 0 0
SMALL
GASTEIGER

@<TRIPOS>ATOM
      1 H          -3.5600   10.6470   23.9840 H       1  UNL1        0.1453
      2 H           7.4520    8.9840   23.8450 H       1  UNL1        0.0278
      3 H           6.7910   13.3830   22.1360 H       1  UNL1        0.0350
      4 H           3.6220   13.8100   24.3410 H       1  UNL1        0.0333
      5 H           6.1600   13.6620   25.9320 H       1  UNL1        0.0235
      6 H           5.2960   15.3620   22.0240 H       1  UNL1        0.0235
      7 H           2.0490   11.5450   22.5540 H       1  UNL1        0.0638
      8 H          -0.3990   11.7020   22.7610 H       1  UNL1        0.0626
      9 H           2.3880   11.3570   26.8360 H       1  UNL1        0.0657
     10 H          -1.2180   10.9870   27.3580 H       1  UNL1        0.1461
     11 H           0.0400   10.3260   29.2700 H       1  UNL1        0.0476
     12 H           0.6880    7.9870   28.9880 H       1  UNL1        0.0478
     13 H          -2.0220    9.0140   28.1230 H       1  UNL1        0.0281
     14 H          -2.4320    7.1610   26.9070 H       1  UNL1        0.0278
     15 H          -0.5670    5.8960   26.1990 H       1  UNL1        0.0427
     16 H           1.7770    6.5720   25.8320 H       1  UNL1        0.0427
     17 H           2.6040    9.2560   26.8600 H       1  UNL1        0.0281
     18 H           4.4170    7.9220   25.8670 H       1  UNL1        0.0328
     19 H          -2.0840   10.3150   23.1310 H       1  UNL1        0.1453
     20 H           7.4440    9.2210   25.6070 H       1  UNL1        0.0278
     21 H           7.8430   14.0410   23.3990 H       1  UNL1        0.0350
     22 H           4.0630   13.3620   22.6880 H       1  UNL1        0.0333
     23 H           5.1650   15.1120   25.7680 H       1  UNL1        0.0235
     24 H           6.3840   16.1820   23.1530 H       1  UNL1        0.0235
     25 H           1.5030   10.1660   28.3680 H       1  UNL1        0.0476
     26 H          -1.5370    8.0770   29.5410 H       1  UNL1        0.0281
     27 H          -2.1900    6.1820   28.3630 H       1  UNL1        0.0278
     28 H           0.0850    5.7700   27.8520 H       1  UNL1        0.0427
     29 H           2.3140    6.9800   27.4670 H       1  UNL1        0.0427
     30 H           1.6750    9.0000   25.3210 H       1  UNL1        0.0281
     31 H           3.5520    7.9120   24.3320 H       1  UNL1        0.0328
     32 H           4.6490   16.1000   23.4970 H       1  UNL1        0.0235
     33 H           6.4280    7.9770   24.8600 H       1  UNL1        0.0278
     34 H           6.8950   15.1810   25.4130 H       1  UNL1        0.0235
     35 C           6.8200    8.9900   24.7390 C.3     1  UNL1       -0.0373
     36 C           5.7310   10.0040   24.6050 C.ar    1  UNL1       -0.0186
     37 C           4.3660    9.8260   24.8640 C.ar    1  UNL1        0.0277
     38 N           3.7300   11.0520   24.5830 N.ar    1  UNL1       -0.3161
     39 C           4.6780   11.9450   24.1280 C.ar    1  UNL1        0.0353
     40 C           5.9160   11.3390   24.1520 C.ar    1  UNL1        0.0416
     41 C           7.1230   12.0600   23.7600 C.2     1  UNL1        0.1657
     42 O           8.2390   11.5470   23.7900 O.2     1  UNL1       -0.2920
     43 C           6.9200   13.4740   23.2220 C.3     1  UNL1        0.0160
     44 C           5.7090   14.2170   23.8450 C.3     1  UNL1       -0.0225
     45 C           4.4150   13.3640   23.7280 C.3     1  UNL1       -0.0057
     46 C           5.9990   14.5570   25.3230 C.3     1  UNL1       -0.0591
     47 C           5.4970   15.5410   23.0870 C.3     1  UNL1       -0.0591
     48 C           2.3520   11.3690   24.6910 C.ar    1  UNL1        0.0484
     49 C           1.5880   11.5210   23.5370 C.ar    1  UNL1       -0.0370
     50 C           0.1990   11.5700   23.6590 C.ar    1  UNL1       -0.0459
     51 C          -0.4170   11.3820   24.9150 C.ar    1  UNL1        0.0574
     52 C           0.3630   11.2550   26.0900 C.ar    1  UNL1        0.0414
     53 C           1.7520   11.3820   25.9550 C.ar    1  UNL1       -0.0162
     54 N          -0.2040   10.8640   27.2970 N.pl3   1  UNL1       -0.3417
     55 C           0.4260    9.9990   28.2950 C.3     1  UNL1        0.0247
     56 C           0.1190    8.4680   28.1770 C.3     1  UNL1        0.0259
     57 C          -1.3710    8.2020   28.4650 C.3     1  UNL1       -0.0347
     58 C          -1.7240    6.9290   27.7120 C.3     1  UNL1       -0.0387
     59 C          -0.4110    6.4390   27.1370 C.3     1  UNL1       -0.0007
     60 N           0.3550    7.6750   26.9400 N.3     1  UNL1       -0.2979
     61 C           1.7580    7.3560   26.6000 C.3     1  UNL1       -0.0004
     62 C           2.4100    8.5960   26.0190 C.3     1  UNL1       -0.0348
     63 C           3.7100    8.4900   25.2510 C.3     1  UNL1       -0.0105
     64 C          -1.9050   11.2760   24.9940 C.2     1  UNL1        0.2433
     65 O          -2.5370   11.6170   25.9880 O.2     1  UNL1       -0.2704
     66 N          -2.5560   10.7390   23.9160 N.am    1  UNL1       -0.3253
@<TRIPOS>BOND
     1     6    47    1
     2     3    43    1
     3     7    49    1
     4    22    45    1
     5     8    50    1
     6    47    24    1
     7    47    32    1
     8    47    44    1
     9    19    66    1
    10    43    21    1
    11    43    41    1
    12    43    44    1
    13    49    50   ar
    14    49    48   ar
    15    50    51   ar
    16    45    44    1
    17    45    39    1
    18    45     4    1
    19    41    42    2
    20    41    40    1
    21    44    46    1
    22     2    35    1
    23    66     1    1
    24    66    64   am
    25    39    40   ar
    26    39    38   ar
    27    40    36   ar
    28    31    63    1
    29    38    48    1
    30    38    37   ar
    31    36    35    1
    32    36    37   ar
    33    48    53   ar
    34    35    33    1
    35    35    20    1
    36    37    63    1
    37    51    64    1
    38    51    52   ar
    39    64    65    2
    40    63    18    1
    41    63    62    1
    42    30    62    1
    43    46    34    1
    44    46    23    1
    45    46     5    1
    46    16    61    1
    47    53    52   ar
    48    53     9    1
    49    62    61    1
    50    62    17    1
    51    52    54    1
    52    15    59    1
    53    61    60    1
    54    61    29    1
    55    14    58    1
    56    60    59    1
    57    60    56    1
    58    59    58    1
    59    59    28    1
    60    54    10    1
    61    54    55    1
    62    58    27    1
    63    58    57    1
    64    13    57    1
    65    56    55    1
    66    56    57    1
    67    56    12    1
    68    55    25    1
    69    55    11    1
    70    57    26    1
