@<TRIPOS>MOLECULE
136.89171
 66 70 0 0 0
SMALL
GASTEIGER

@<TRIPOS>ATOM
      1 H          -3.5480   10.1860   24.1240 H       1  UNL1        0.1453
      2 H           8.0160   10.7020   25.3380 H       1  UNL1        0.0278
      3 H           6.5220    6.6120   23.3580 H       1  UNL1        0.0350
      4 H           3.1270    8.2200   22.3750 H       1  UNL1        0.0333
      5 H           5.4390    9.2890   20.8020 H       1  UNL1        0.0235
      6 H           4.6130    5.3370   22.4140 H       1  UNL1        0.0235
      7 H           2.0700   10.3820   22.3320 H       1  UNL1        0.0638
      8 H          -0.3530   10.5960   22.6540 H       1  UNL1        0.0626
      9 H           2.5990    9.9440   26.5780 H       1  UNL1        0.0657
     10 H          -0.9370   10.6550   27.3000 H       1  UNL1        0.1461
     11 H           1.4960    9.3590   28.4410 H       1  UNL1        0.0476
     12 H           0.6550   12.3000   28.8330 H       1  UNL1        0.0478
     13 H           0.6310   10.5240   31.0830 H       1  UNL1        0.0281
     14 H           3.0040   10.2560   31.1380 H       1  UNL1        0.0278
     15 H           4.4420   11.8880   30.0630 H       1  UNL1        0.0427
     16 H           2.9700   13.5830   27.9930 H       1  UNL1        0.0427
     17 H           4.5460   11.0820   27.3060 H       1  UNL1        0.0281
     18 H           3.3480   12.6780   25.1700 H       1  UNL1        0.0328
     19 H          -2.2110    9.5260   23.2330 H       1  UNL1        0.1453
     20 H           7.8220   11.7900   23.9450 H       1  UNL1        0.0278
     21 H           7.2420    7.0210   21.7930 H       1  UNL1        0.0350
     22 H           3.8260    7.2670   23.6830 H       1  UNL1        0.0333
     23 H           4.1510    8.2830   20.1330 H       1  UNL1        0.0235
     24 H           5.3480    5.5300   20.8170 H       1  UNL1        0.0235
     25 H          -0.0370    9.7040   29.1850 H       1  UNL1        0.0476
     26 H           0.7570   12.2870   31.0810 H       1  UNL1        0.0281
     27 H           2.7990   11.7050   32.1440 H       1  UNL1        0.0278
     28 H           3.2190   13.1730   30.2550 H       1  UNL1        0.0427
     29 H           2.1570   12.4280   26.9790 H       1  UNL1        0.0427
     30 H           5.1050   12.7230   27.5320 H       1  UNL1        0.0281
     31 H           5.0100   13.1600   25.3150 H       1  UNL1        0.0328
     32 H           3.6570    5.9860   21.0750 H       1  UNL1        0.0235
     33 H           7.1660   12.2370   25.5280 H       1  UNL1        0.0278
     34 H           5.8420    7.8300   19.8920 H       1  UNL1        0.0235
     35 C           7.3330   11.4000   24.8430 C.3     1  UNL1       -0.0373
     36 C           6.0600   10.7140   24.4800 C.ar    1  UNL1       -0.0186
     37 C           4.7650   11.1000   24.8120 C.ar    1  UNL1        0.0277
     38 N           3.8810   10.1570   24.2890 N.ar    1  UNL1       -0.3161
     39 C           4.6090    9.2220   23.5820 C.ar    1  UNL1        0.0353
     40 C           5.9530    9.5210   23.7140 C.ar    1  UNL1        0.0416
     41 C           6.9840    8.6690   23.1300 C.2     1  UNL1        0.1657
     42 O           8.1790    8.9510   23.1740 O.2     1  UNL1       -0.2920
     43 C           6.5080    7.3450   22.5410 C.3     1  UNL1        0.0160
     44 C           5.0940    7.4120   21.9070 C.3     1  UNL1       -0.0225
     45 C           4.0590    8.0060   22.9050 C.3     1  UNL1       -0.0057
     46 C           5.1350    8.2540   20.6140 C.3     1  UNL1       -0.0591
     47 C           4.6530    5.9850   21.5310 C.3     1  UNL1       -0.0591
     48 C           2.4740   10.1600   24.4470 C.ar    1  UNL1        0.0484
     49 C           1.6530   10.3080   23.3330 C.ar    1  UNL1       -0.0370
     50 C           0.2790   10.4350   23.5230 C.ar    1  UNL1       -0.0459
     51 C          -0.2690   10.4290   24.8230 C.ar    1  UNL1        0.0574
     52 C           0.5630   10.2990   25.9650 C.ar    1  UNL1        0.0414
     53 C           1.9310   10.1060   25.7370 C.ar    1  UNL1       -0.0162
     54 N           0.0340   10.3320   27.2430 N.pl3   1  UNL1       -0.3417
     55 C           0.7190   10.1300   28.5150 C.3     1  UNL1        0.0247
     56 C           1.2640   11.4430   29.1510 C.3     1  UNL1        0.0259
     57 C           1.2080   11.3660   30.6900 C.3     1  UNL1       -0.0347
     58 C           2.6560   11.2960   31.1400 C.3     1  UNL1       -0.0387
     59 C           3.3680   12.1010   30.0770 C.3     1  UNL1       -0.0007
     60 N           2.7010   11.6510   28.8570 N.3     1  UNL1       -0.2979
     61 C           2.9630   12.5220   27.7100 C.3     1  UNL1       -0.0004
     62 C           4.3050   12.1280   27.0710 C.3     1  UNL1       -0.0348
     63 C           4.3190   12.3410   25.5520 C.3     1  UNL1       -0.0105
     64 C          -1.7450   10.5990   24.9850 C.2     1  UNL1        0.2433
     65 O          -2.2410   11.1450   25.9640 O.2     1  UNL1       -0.2704
     66 N          -2.5480   10.0850   24.0020 N.am    1  UNL1       -0.3253
@<TRIPOS>BOND
     1    34    46    1
     2    23    46    1
     3    46     5    1
     4    46    44    1
     5    24    47    1
     6    32    47    1
     7    47    44    1
     8    47     6    1
     9    21    43    1
    10    44    43    1
    11    44    45    1
    12     7    49    1
    13     4    45    1
    14    43    41    1
    15    43     3    1
    16     8    50    1
    17    45    39    1
    18    45    22    1
    19    41    42    2
    20    41    40    1
    21    19    66    1
    22    49    50   ar
    23    49    48   ar
    24    50    51   ar
    25    39    40   ar
    26    39    38   ar
    27    40    36   ar
    28    20    35    1
    29    66     1    1
    30    66    64   am
    31    38    48    1
    32    38    37   ar
    33    48    53   ar
    34    36    37   ar
    35    36    35    1
    36    37    63    1
    37    51    64    1
    38    51    52   ar
    39    35     2    1
    40    35    33    1
    41    64    65    2
    42    18    63    1
    43    31    63    1
    44    63    62    1
    45    53    52   ar
    46    53     9    1
    47    52    54    1
    48    29    61    1
    49    62    17    1
    50    62    30    1
    51    62    61    1
    52    54    10    1
    53    54    55    1
    54    61    16    1
    55    61    60    1
    56    11    55    1
    57    55    56    1
    58    55    25    1
    59    12    56    1
    60    60    56    1
    61    60    59    1
    62    56    57    1
    63    15    59    1
    64    59    28    1
    65    59    58    1
    66    57    26    1
    67    57    13    1
    68    57    58    1
    69    14    58    1
    70    58    27    1
