@<TRIPOS>MOLECULE
141.22918
 66 70 0 0 0
SMALL
GASTEIGER

@<TRIPOS>ATOM
      1 H          -3.2360   11.1080   25.0580 H       1  UNL1        0.1453
      2 H           7.8930   10.1650   26.1890 H       1  UNL1        0.0278
      3 H           6.4310    6.2170   23.2030 H       1  UNL1        0.0350
      4 H           3.2560    8.2820   22.3210 H       1  UNL1        0.0333
      5 H           5.7520    9.3240   21.0200 H       1  UNL1        0.0235
      6 H           4.4800    5.2820   21.9920 H       1  UNL1        0.0235
      7 H           2.4130   11.7850   23.3950 H       1  UNL1        0.0638
      8 H           0.0260   11.9860   23.9700 H       1  UNL1        0.0626
      9 H           2.6860    8.2050   25.7610 H       1  UNL1        0.0657
     10 H          -0.6340    8.6440   27.2200 H       1  UNL1        0.1461
     11 H           2.1710    7.7530   27.7630 H       1  UNL1        0.0476
     12 H           1.2490   10.4590   28.2340 H       1  UNL1        0.0478
     13 H           0.5280    8.7330   30.5600 H       1  UNL1        0.0281
     14 H           2.2750    9.4770   31.8160 H       1  UNL1        0.0278
     15 H           3.9910   10.7820   30.8030 H       1  UNL1        0.0427
     16 H           4.0140    9.2840   27.4080 H       1  UNL1        0.0427
     17 H           3.5990   12.2820   27.9300 H       1  UNL1        0.0281
     18 H           4.1920   12.5990   25.5510 H       1  UNL1        0.0328
     19 H          -2.0290   11.1680   23.8120 H       1  UNL1        0.1453
     20 H           8.3290   10.7070   24.5530 H       1  UNL1        0.0278
     21 H           7.2810    6.7790   21.7560 H       1  UNL1        0.0350
     22 H           3.7960    7.0770   23.4960 H       1  UNL1        0.0333
     23 H           4.4190    8.5560   20.1530 H       1  UNL1        0.0235
     24 H           5.3240    5.6310   20.4770 H       1  UNL1        0.0235
     25 H           0.7810    7.5610   28.7780 H       1  UNL1        0.0476
     26 H           0.0190   10.3630   30.1040 H       1  UNL1        0.0281
     27 H           1.4910   11.0650   31.7750 H       1  UNL1        0.0278
     28 H           2.8100   11.7860   29.9260 H       1  UNL1        0.0427
     29 H           4.9520   10.2610   28.4900 H       1  UNL1        0.0427
     30 H           2.6040   11.3600   26.8500 H       1  UNL1        0.0281
     31 H           5.5070   12.1360   26.6010 H       1  UNL1        0.0328
     32 H           3.6670    6.2050   20.7200 H       1  UNL1        0.0235
     33 H           7.4740   11.7980   25.6300 H       1  UNL1        0.0278
     34 H           6.0740    7.9770   19.9250 H       1  UNL1        0.0235
     35 C           7.5570   10.7500   25.3270 C.3     1  UNL1       -0.0373
     36 C           6.2580   10.2180   24.8210 C.ar    1  UNL1       -0.0186
     37 C           4.9740   10.6610   25.1520 C.ar    1  UNL1        0.0277
     38 N           4.0660    9.9160   24.4020 N.ar    1  UNL1       -0.3161
     39 C           4.7550    8.9450   23.7120 C.ar    1  UNL1        0.0353
     40 C           6.1060    9.1120   23.9370 C.ar    1  UNL1        0.0416
     41 C           7.0900    8.2300   23.3140 C.2     1  UNL1        0.1657
     42 O           8.3000    8.3630   23.4840 O.2     1  UNL1       -0.2920
     43 C           6.5330    7.0600   22.5070 C.3     1  UNL1        0.0160
     44 C           5.1720    7.3530   21.8200 C.3     1  UNL1       -0.0225
     45 C           4.1370    7.8940   22.8460 C.3     1  UNL1       -0.0057
     46 C           5.3660    8.3620   20.6690 C.3     1  UNL1       -0.0591
     47 C           4.6300    6.0430   21.2170 C.3     1  UNL1       -0.0591
     48 C           2.6650    9.9620   24.5300 C.ar    1  UNL1        0.0484
     49 C           1.9410   11.0350   24.0230 C.ar    1  UNL1       -0.0370
     50 C           0.5890   11.1410   24.3570 C.ar    1  UNL1       -0.0459
     51 C           0.0020   10.2370   25.2690 C.ar    1  UNL1        0.0574
     52 C           0.7780    9.2060   25.8500 C.ar    1  UNL1        0.0414
     53 C           2.0770    9.0170   25.3710 C.ar    1  UNL1       -0.0162
     54 N           0.3430    8.4700   26.9580 N.pl3   1  UNL1       -0.3417
     55 C           1.2620    8.2670   28.0920 C.3     1  UNL1        0.0247
     56 C           1.6020    9.6030   28.8200 C.3     1  UNL1        0.0259
     57 C           0.8870    9.6970   30.1820 C.3     1  UNL1       -0.0347
     58 C           1.9130   10.2710   31.1510 C.3     1  UNL1       -0.0387
     59 C           3.0370   10.7700   30.2660 C.3     1  UNL1       -0.0007
     60 N           3.0280    9.7970   29.1740 N.3     1  UNL1       -0.2979
     61 C           3.9430   10.1500   28.0720 C.3     1  UNL1       -0.0004
     62 C           3.6130   11.4150   27.2580 C.3     1  UNL1       -0.0348
     63 C           4.5960   11.7550   26.1250 C.3     1  UNL1       -0.0105
     64 C          -1.4150   10.4440   25.6930 C.2     1  UNL1        0.2433
     65 O          -1.8230   10.1200   26.8030 O.2     1  UNL1       -0.2704
     66 N          -2.2720   10.9860   24.7740 N.am    1  UNL1       -0.3253
@<TRIPOS>BOND
     1    34    46    1
     2    23    46    1
     3    24    47    1
     4    46     5    1
     5    46    44    1
     6    32    47    1
     7    47    44    1
     8    47     6    1
     9    21    43    1
    10    44    43    1
    11    44    45    1
    12     4    45    1
    13    43     3    1
    14    43    41    1
    15    45    22    1
    16    45    39    1
    17    41    42    2
    18    41    40    1
    19     7    49    1
    20    39    40   ar
    21    39    38   ar
    22    19    66    1
    23    40    36   ar
    24     8    50    1
    25    49    50   ar
    26    49    48   ar
    27    50    51   ar
    28    38    48    1
    29    38    37   ar
    30    48    53   ar
    31    20    35    1
    32    66     1    1
    33    66    64   am
    34    36    37   ar
    35    36    35    1
    36    37    63    1
    37    51    64    1
    38    51    52   ar
    39    35    33    1
    40    35     2    1
    41    53     9    1
    42    53    52   ar
    43    18    63    1
    44    64    65    2
    45    52    54    1
    46    63    31    1
    47    63    62    1
    48    30    62    1
    49    54    10    1
    50    54    55    1
    51    62    17    1
    52    62    61    1
    53    16    61    1
    54    11    55    1
    55    61    29    1
    56    61    60    1
    57    55    25    1
    58    55    56    1
    59    12    56    1
    60    56    60    1
    61    56    57    1
    62    60    59    1
    63    28    59    1
    64    26    57    1
    65    57    13    1
    66    57    58    1
    67    59    15    1
    68    59    58    1
    69    58    27    1
    70    58    14    1
