@<TRIPOS>MOLECULE
144.30264
 66 70 0 0 0
SMALL
GASTEIGER

@<TRIPOS>ATOM
      1 H          -2.4850   10.2120   28.2950 H       1  UNL1        0.1453
      2 H           6.2440   10.6110   20.8230 H       1  UNL1        0.0278
      3 H           8.2120    8.9930   24.8480 H       1  UNL1        0.0350
      4 H           4.7090    8.5210   26.4410 H       1  UNL1        0.0333
      5 H           5.1980    6.7110   24.0730 H       1  UNL1        0.0235
      6 H           7.8390    8.2190   27.1810 H       1  UNL1        0.0235
      7 H           3.1530   12.5840   25.6480 H       1  UNL1        0.0638
      8 H           1.0930   12.8610   26.9790 H       1  UNL1        0.0626
      9 H           2.3700    8.3640   25.3070 H       1  UNL1        0.0657
     10 H           0.2800    7.5250   26.2730 H       1  UNL1        0.1461
     11 H          -0.9540    9.6630   24.5860 H       1  UNL1        0.0476
     12 H           0.8470    7.5110   23.9750 H       1  UNL1        0.0478
     13 H          -1.7560    6.2910   24.1130 H       1  UNL1        0.0281
     14 H          -2.4010    7.0870   21.9680 H       1  UNL1        0.0278
     15 H          -0.7260    7.9180   20.4170 H       1  UNL1        0.0427
     16 H           1.2700    9.3200   21.0250 H       1  UNL1        0.0427
     17 H           0.8400   10.6400   23.7230 H       1  UNL1        0.0281
     18 H           2.6600   11.5740   21.4850 H       1  UNL1        0.0328
     19 H          -1.3740    9.1060   27.4950 H       1  UNL1        0.1453
     20 H           4.8700    9.5690   20.3920 H       1  UNL1        0.0278
     21 H           8.1890    7.3730   24.1340 H       1  UNL1        0.0350
     22 H           6.0320    9.6860   26.4100 H       1  UNL1        0.0333
     23 H           5.0430    6.1650   25.7440 H       1  UNL1        0.0235
     24 H           7.9790    6.5560   26.5950 H       1  UNL1        0.0235
     25 H          -1.8690    8.2510   25.0200 H       1  UNL1        0.0476
     26 H          -0.2300    5.6460   23.5020 H       1  UNL1        0.0281
     27 H          -1.5010    5.6270   21.5070 H       1  UNL1        0.0278
     28 H           0.5400    6.9010   21.1570 H       1  UNL1        0.0427
     29 H           1.9850    8.6210   22.4660 H       1  UNL1        0.0427
     30 H           0.3980   11.2340   22.1590 H       1  UNL1        0.0281
     31 H           2.4240   12.3540   23.0270 H       1  UNL1        0.0328
     32 H           6.5750    7.0400   27.5590 H       1  UNL1        0.0235
     33 H           4.6600   11.3230   20.5700 H       1  UNL1        0.0278
     34 H           6.4500    5.6900   24.7840 H       1  UNL1        0.0235
     35 C           5.1730   10.4450   20.9730 C.3     1  UNL1       -0.0373
     36 C           4.8590   10.2370   22.4170 C.ar    1  UNL1       -0.0186
     37 C           3.7200   10.6570   23.1050 C.ar    1  UNL1        0.0277
     38 N           3.8750   10.2910   24.4440 N.ar    1  UNL1       -0.3161
     39 C           5.0210    9.5390   24.5640 C.ar    1  UNL1        0.0353
     40 C           5.6650    9.5150   23.3420 C.ar    1  UNL1        0.0416
     41 C           6.9300    8.8050   23.1680 C.2     1  UNL1        0.1657
     42 O           7.4990    8.7240   22.0820 O.2     1  UNL1       -0.2920
     43 C           7.5560    8.2180   24.4310 C.3     1  UNL1        0.0160
     44 C           6.5210    7.7610   25.4930 C.3     1  UNL1       -0.0225
     45 C           5.5260    8.9090   25.8240 C.3     1  UNL1       -0.0057
     46 C           5.7590    6.5150   24.9920 C.3     1  UNL1       -0.0591
     47 C           7.2710    7.3720   26.7810 C.3     1  UNL1       -0.0591
     48 C           2.8920   10.4440   25.4440 C.ar    1  UNL1        0.0484
     49 C           2.5440   11.7160   25.8890 C.ar    1  UNL1       -0.0370
     50 C           1.3680   11.8700   26.6210 C.ar    1  UNL1       -0.0459
     51 C           0.4910   10.7840   26.8160 C.ar    1  UNL1        0.0574
     52 C           0.8420    9.5000   26.3290 C.ar    1  UNL1        0.0414
     53 C           2.0970    9.3290   25.7270 C.ar    1  UNL1       -0.0162
     54 N          -0.1030    8.4580   26.1340 N.pl3   1  UNL1       -0.3417
     55 C          -0.8460    8.6040   24.8500 C.3     1  UNL1        0.0247
     56 C          -0.1690    7.8050   23.6920 C.3     1  UNL1        0.0259
     57 C          -0.9290    6.4890   23.4250 C.3     1  UNL1       -0.0347
     58 C          -1.4180    6.6020   21.9950 C.3     1  UNL1       -0.0387
     59 C          -0.3700    7.4840   21.3560 C.3     1  UNL1       -0.0007
     60 N          -0.1420    8.5150   22.3800 N.3     1  UNL1       -0.2979
     61 C           1.1360    9.2170   22.1110 C.3     1  UNL1       -0.0004
     62 C           1.1570   10.6370   22.6840 C.3     1  UNL1       -0.0348
     63 C           2.5030   11.3690   22.5500 C.3     1  UNL1       -0.0105
     64 C          -0.7920   11.0880   27.5260 C.2     1  UNL1        0.2433
     65 O          -1.0960   12.2280   27.8580 O.2     1  UNL1       -0.2704
     66 N          -1.6150   10.0410   27.8140 N.am    1  UNL1       -0.3253
@<TRIPOS>BOND
     1    20    35    1
     2    15    59    1
     3    33    35    1
     4     2    35    1
     5    35    36    1
     6    16    61    1
     7    28    59    1
     8    59    58    1
     9    59    60    1
    10    18    63    1
    11    27    58    1
    12    14    58    1
    13    58    57    1
    14    42    41    2
    15    61    60    1
    16    61    29    1
    17    61    62    1
    18    30    62    1
    19    60    56    1
    20    36    37   ar
    21    36    40   ar
    22    63    62    1
    23    63    31    1
    24    63    37    1
    25    62    17    1
    26    37    38   ar
    27    41    40    1
    28    41    43    1
    29    40    39   ar
    30    57    26    1
    31    57    56    1
    32    57    13    1
    33    56    12    1
    34    56    55    1
    35     5    46    1
    36    21    43    1
    37    43     3    1
    38    43    44    1
    39    38    39   ar
    40    38    48    1
    41    39    45    1
    42    11    55    1
    43    34    46    1
    44    55    25    1
    45    55    54    1
    46    46    44    1
    47    46    23    1
    48     9    53    1
    49    48    53   ar
    50    48    49   ar
    51    44    45    1
    52    44    47    1
    53     7    49    1
    54    53    52   ar
    55    45    22    1
    56    45     4    1
    57    49    50   ar
    58    54    10    1
    59    54    52    1
    60    52    51   ar
    61    24    47    1
    62    50    51   ar
    63    50     8    1
    64    47     6    1
    65    47    32    1
    66    51    64    1
    67    19    66    1
    68    64    66   am
    69    64    65    2
    70    66     1    1
