@<TRIPOS>MOLECULE
140.84757
 66 70 0 0 0
SMALL
GASTEIGER

@<TRIPOS>ATOM
      1 H          -3.5610   10.9140   26.0640 H       1  UNL1        0.1453
      2 H           7.4470    9.1240   23.8720 H       1  UNL1        0.0278
      3 H           6.3200   13.1580   21.6830 H       1  UNL1        0.0350
      4 H           4.1740   14.2330   24.7160 H       1  UNL1        0.0333
      5 H           6.9550   13.9820   25.3990 H       1  UNL1        0.0235
      6 H           5.0380   15.3070   21.7280 H       1  UNL1        0.0235
      7 H           2.3350   13.6910   24.9790 H       1  UNL1        0.0638
      8 H          -0.0270   13.8220   25.3520 H       1  UNL1        0.0626
      9 H           2.0760    9.3830   25.0550 H       1  UNL1        0.0657
     10 H           0.1940    8.4110   25.7870 H       1  UNL1        0.1461
     11 H          -1.2660    9.3530   27.9770 H       1  UNL1        0.0476
     12 H           0.4590    8.1930   29.3440 H       1  UNL1        0.0478
     13 H          -1.1410    6.9050   27.2360 H       1  UNL1        0.0281
     14 H           0.6920    5.7960   26.3240 H       1  UNL1        0.0278
     15 H           2.8650    5.9650   27.3520 H       1  UNL1        0.0427
     16 H           3.7200    7.8610   28.7630 H       1  UNL1        0.0427
     17 H           4.2520   10.1940   28.3020 H       1  UNL1        0.0281
     18 H           5.0760    8.6370   26.7430 H       1  UNL1        0.0328
     19 H          -2.1740    9.8870   25.7250 H       1  UNL1        0.1453
     20 H           7.7000    9.4940   25.5940 H       1  UNL1        0.0278
     21 H           7.7660   13.8750   22.4100 H       1  UNL1        0.0350
     22 H           3.8900   13.6290   23.0630 H       1  UNL1        0.0333
     23 H           6.1080   15.5280   25.3130 H       1  UNL1        0.0235
     24 H           6.4840   16.1200   22.3430 H       1  UNL1        0.0235
     25 H           0.2760   10.2050   28.0090 H       1  UNL1        0.0476
     26 H          -0.7600    6.3870   28.8820 H       1  UNL1        0.0281
     27 H           0.5160    4.7700   27.7600 H       1  UNL1        0.0278
     28 H           2.1570    6.0650   28.9880 H       1  UNL1        0.0427
     29 H           2.5190    8.9260   29.4520 H       1  UNL1        0.0427
     30 H           2.7310   10.4360   27.4970 H       1  UNL1        0.0281
     31 H           3.6010    8.4290   25.8740 H       1  UNL1        0.0328
     32 H           4.9460   16.2760   23.2060 H       1  UNL1        0.0235
     33 H           6.5400    8.2470   25.0900 H       1  UNL1        0.0278
     34 H           7.6330   15.3070   24.4480 H       1  UNL1        0.0235
     35 C           6.9500    9.2300   24.8410 C.3     1  UNL1       -0.0373
     36 C           5.8840   10.2740   24.7860 C.ar    1  UNL1       -0.0186
     37 C           4.6420   10.2500   25.4170 C.ar    1  UNL1        0.0277
     38 N           3.8900   11.3500   24.9410 N.ar    1  UNL1       -0.3161
     39 C           4.8140   12.2220   24.3550 C.ar    1  UNL1        0.0353
     40 C           5.9850   11.5170   24.1200 C.ar    1  UNL1        0.0416
     41 C           7.0870   12.0770   23.3400 C.2     1  UNL1        0.1657
     42 O           8.1600   11.4960   23.1910 O.2     1  UNL1       -0.2920
     43 C           6.8060   13.3950   22.6370 C.3     1  UNL1        0.0160
     44 C           5.9220   14.3370   23.4820 C.3     1  UNL1       -0.0225
     45 C           4.5950   13.6360   23.9030 C.3     1  UNL1       -0.0057
     46 C           6.6980   14.8100   24.7310 C.3     1  UNL1       -0.0591
     47 C           5.5780   15.5810   22.6420 C.3     1  UNL1       -0.0591
     48 C           2.4580   11.5100   25.0380 C.ar    1  UNL1        0.0484
     49 C           1.8200   12.7490   25.0740 C.ar    1  UNL1       -0.0370
     50 C           0.4420   12.8390   25.3240 C.ar    1  UNL1       -0.0459
     51 C          -0.3200   11.6970   25.6030 C.ar    1  UNL1        0.0574
     52 C           0.3050   10.4410   25.5640 C.ar    1  UNL1        0.0414
     53 C           1.6530   10.3720   25.1730 C.ar    1  UNL1       -0.0162
     54 N          -0.2320    9.2670   26.1470 N.pl3   1  UNL1       -0.3417
     55 C          -0.2270    9.3060   27.6290 C.3     1  UNL1        0.0247
     56 C           0.4610    8.0660   28.2530 C.3     1  UNL1        0.0259
     57 C          -0.3240    6.7750   27.9530 C.3     1  UNL1       -0.0347
     58 C           0.7050    5.7930   27.4210 C.3     1  UNL1       -0.0387
     59 C           2.0190    6.3410   27.9340 C.3     1  UNL1       -0.0007
     60 N           1.8420    7.7910   27.7700 N.3     1  UNL1       -0.2979
     61 C           2.8920    8.5330   28.4980 C.3     1  UNL1       -0.0004
     62 C           3.5010    9.6860   27.6810 C.3     1  UNL1       -0.0348
     63 C           4.1870    9.1860   26.4030 C.3     1  UNL1       -0.0105
     64 C          -1.7660   11.9070   25.9110 C.2     1  UNL1        0.2433
     65 O          -2.2240   13.0170   26.1500 O.2     1  UNL1       -0.2704
     66 N          -2.5740   10.8080   25.8840 N.am    1  UNL1       -0.3253
@<TRIPOS>BOND
     1     3    43    1
     2     6    47    1
     3    24    47    1
     4    21    43    1
     5    43    41    1
     6    43    44    1
     7    47    32    1
     8    47    44    1
     9    22    45    1
    10    42    41    2
    11    41    40    1
    12    44    45    1
    13    44    46    1
    14     2    35    1
    15    45    39    1
    16    45     4    1
    17    40    39   ar
    18    40    36   ar
    19    39    38   ar
    20    34    46    1
    21    46    23    1
    22    46     5    1
    23    36    35    1
    24    36    37   ar
    25    35    33    1
    26    35    20    1
    27    38    48    1
    28    38    37   ar
    29     7    49    1
    30    48    49   ar
    31    48    53   ar
    32     9    53    1
    33    49    50   ar
    34    53    52   ar
    35    50     8    1
    36    50    51   ar
    37    37    63    1
    38    52    51   ar
    39    52    54    1
    40    51    64    1
    41    19    66    1
    42    10    54    1
    43    31    63    1
    44    66    64   am
    45    66     1    1
    46    64    65    2
    47    54    55    1
    48    14    58    1
    49    63    18    1
    50    63    62    1
    51    13    57    1
    52    15    59    1
    53    58    27    1
    54    58    59    1
    55    58    57    1
    56    30    62    1
    57    55    11    1
    58    55    25    1
    59    55    56    1
    60    62    17    1
    61    62    61    1
    62    60    59    1
    63    60    56    1
    64    60    61    1
    65    59    28    1
    66    57    56    1
    67    57    26    1
    68    56    12    1
    69    61    16    1
    70    61    29    1
