@<TRIPOS>MOLECULE
138.86600
 66 70 0 0 0
SMALL
GASTEIGER

@<TRIPOS>ATOM
      1 H          -3.3610   10.2540   24.3630 H       1  UNL1        0.1453
      2 H           8.0140    9.2220   26.0900 H       1  UNL1        0.0278
      3 H           6.3910    6.1780   22.3550 H       1  UNL1        0.0350
      4 H           3.1940    8.3450   22.0560 H       1  UNL1        0.0333
      5 H           5.6710    9.7280   21.0320 H       1  UNL1        0.0235
      6 H           4.4180    5.5650   20.9850 H       1  UNL1        0.0235
      7 H           2.3100   10.3550   22.6810 H       1  UNL1        0.0638
      8 H          -0.0950   10.6840   23.0350 H       1  UNL1        0.0626
      9 H           2.6590    8.6970   26.6090 H       1  UNL1        0.0657
     10 H          -0.7600    9.5850   27.5830 H       1  UNL1        0.1461
     11 H           1.6720    8.1610   28.4430 H       1  UNL1        0.0476
     12 H           2.0910   10.8840   28.0080 H       1  UNL1        0.0478
     13 H           0.1750   10.8830   30.2110 H       1  UNL1        0.0281
     14 H           1.8450   10.7570   31.8470 H       1  UNL1        0.0278
     15 H           4.1760   10.9080   31.2480 H       1  UNL1        0.0427
     16 H           3.9740    8.6440   28.2170 H       1  UNL1        0.0427
     17 H           6.1280    9.9690   27.8520 H       1  UNL1        0.0281
     18 H           3.5880   11.1510   26.5990 H       1  UNL1        0.0328
     19 H          -2.0820    9.7170   23.3190 H       1  UNL1        0.1453
     20 H           8.2650   10.2980   24.6960 H       1  UNL1        0.0278
     21 H           7.2140    7.0920   21.0810 H       1  UNL1        0.0350
     22 H           3.7780    6.9230   22.9170 H       1  UNL1        0.0333
     23 H           4.3200    9.1950   20.0270 H       1  UNL1        0.0235
     24 H           5.2370    6.2840   19.5920 H       1  UNL1        0.0235
     25 H           0.4030    8.7880   29.4510 H       1  UNL1        0.0476
     26 H           0.9680   12.2180   29.3680 H       1  UNL1        0.0281
     27 H           2.0270   12.4770   31.4530 H       1  UNL1        0.0278
     28 H           3.8150   12.0200   29.8990 H       1  UNL1        0.0427
     29 H           4.9670    9.0700   29.5530 H       1  UNL1        0.0427
     30 H           5.3590   11.3620   28.5360 H       1  UNL1        0.0281
     31 H           5.1490   11.8270   26.3260 H       1  UNL1        0.0328
     32 H           3.5840    6.7730   19.9970 H       1  UNL1        0.0235
     33 H           7.4790   10.9150   26.1400 H       1  UNL1        0.0278
     34 H           5.9700    8.6990   19.6290 H       1  UNL1        0.0235
     35 C           7.5720   10.0320   25.5010 C.3     1  UNL1       -0.0373
     36 C           6.2520    9.6080   24.9490 C.ar    1  UNL1       -0.0186
     37 C           4.9830    9.9360   25.4310 C.ar    1  UNL1        0.0277
     38 N           4.0400    9.3990   24.5430 N.ar    1  UNL1       -0.3161
     39 C           4.7120    8.7040   23.5570 C.ar    1  UNL1        0.0353
     40 C           6.0690    8.7850   23.8040 C.ar    1  UNL1        0.0416
     41 C           7.0430    8.1020   22.9560 C.2     1  UNL1        0.1657
     42 O           8.2560    8.1990   23.1310 O.2     1  UNL1       -0.2920
     43 C           6.4780    7.1690   21.8910 C.3     1  UNL1        0.0160
     44 C           5.1070    7.6160   21.3250 C.3     1  UNL1       -0.0225
     45 C           4.0900    7.8770   22.4720 C.3     1  UNL1       -0.0057
     46 C           5.2780    8.8830   20.4590 C.3     1  UNL1       -0.0591
     47 C           4.5550    6.4960   20.4230 C.3     1  UNL1       -0.0591
     48 C           2.6330    9.5190   24.6520 C.ar    1  UNL1        0.0484
     49 C           1.8620   10.0420   23.6200 C.ar    1  UNL1       -0.0370
     50 C           0.4930   10.2370   23.8320 C.ar    1  UNL1       -0.0459
     51 C          -0.0950    9.9430   25.0810 C.ar    1  UNL1        0.0574
     52 C           0.6960    9.4490   26.1420 C.ar    1  UNL1        0.0414
     53 C           2.0380    9.1720   25.8620 C.ar    1  UNL1       -0.0162
     54 N           0.1890    9.2350   27.4210 N.pl3   1  UNL1       -0.3417
     55 C           1.0410    9.0440   28.5960 C.3     1  UNL1        0.0247
     56 C           1.8900   10.3080   28.9130 C.3     1  UNL1        0.0259
     57 C           1.1450   11.2590   29.8690 C.3     1  UNL1       -0.0347
     58 C           2.0890   11.4640   31.0440 C.3     1  UNL1       -0.0387
     59 C           3.4540   11.1540   30.4640 C.3     1  UNL1       -0.0007
     60 N           3.1550   10.0130   29.6050 N.3     1  UNL1       -0.2979
     61 C           4.2810    9.5070   28.8130 C.3     1  UNL1       -0.0004
     62 C           5.1500   10.4540   27.9590 C.3     1  UNL1       -0.0348
     63 C           4.6420   10.8820   26.5730 C.3     1  UNL1       -0.0105
     64 C          -1.5460   10.2210   25.2930 C.2     1  UNL1        0.2433
     65 O          -2.0020   10.5370   26.3870 O.2     1  UNL1       -0.2704
     66 N          -2.3760   10.0810   24.2130 N.am    1  UNL1       -0.3253
@<TRIPOS>BOND
     1    24    47    1
     2    34    46    1
     3    32    47    1
     4    23    46    1
     5    47     6    1
     6    47    44    1
     7    46     5    1
     8    46    44    1
     9    21    43    1
    10    44    43    1
    11    44    45    1
    12    43     3    1
    13    43    41    1
    14     4    45    1
    15    45    22    1
    16    45    39    1
    17     7    49    1
    18    41    42    2
    19    41    40    1
    20     8    50    1
    21    19    66    1
    22    39    40   ar
    23    39    38   ar
    24    49    50   ar
    25    49    48   ar
    26    40    36   ar
    27    50    51   ar
    28    66     1    1
    29    66    64   am
    30    38    48    1
    31    38    37   ar
    32    48    53   ar
    33    20    35    1
    34    36    37   ar
    35    36    35    1
    36    51    64    1
    37    51    52   ar
    38    64    65    2
    39    37    63    1
    40    35     2    1
    41    35    33    1
    42    53    52   ar
    43    53     9    1
    44    52    54    1
    45    31    63    1
    46    63    18    1
    47    63    62    1
    48    54    10    1
    49    54    55    1
    50    17    62    1
    51    62    30    1
    52    62    61    1
    53    12    56    1
    54    16    61    1
    55    11    55    1
    56    55    56    1
    57    55    25    1
    58    61    29    1
    59    61    60    1
    60    56    60    1
    61    56    57    1
    62    26    57    1
    63    60    59    1
    64    57    13    1
    65    57    58    1
    66    28    59    1
    67    59    58    1
    68    59    15    1
    69    58    27    1
    70    58    14    1
