@<TRIPOS>MOLECULE
136.62534
 66 70 0 0 0
SMALL
GASTEIGER

@<TRIPOS>ATOM
      1 H          -3.5800    9.9540   24.0380 H       1  UNL1        0.1453
      2 H           7.9500   10.9620   25.4660 H       1  UNL1        0.0278
      3 H           6.6390    6.7530   23.6110 H       1  UNL1        0.0350
      4 H           3.1980    8.1930   22.5450 H       1  UNL1        0.0333
      5 H           5.5000    9.3350   20.9810 H       1  UNL1        0.0235
      6 H           4.7970    5.3880   22.6620 H       1  UNL1        0.0235
      7 H           2.0700   10.2600   22.3710 H       1  UNL1        0.0638
      8 H          -0.3650   10.3890   22.6210 H       1  UNL1        0.0626
      9 H           2.5030   10.1450   26.6500 H       1  UNL1        0.0657
     10 H          -1.0780   10.7520   27.2320 H       1  UNL1        0.1461
     11 H           1.4320    9.7860   28.5410 H       1  UNL1        0.0476
     12 H           0.3280   12.6550   28.5660 H       1  UNL1        0.0478
     13 H           0.3420   11.1200   31.0260 H       1  UNL1        0.0281
     14 H           2.6770   11.3010   31.3430 H       1  UNL1        0.0278
     15 H           3.9700   12.9130   30.0800 H       1  UNL1        0.0427
     16 H           2.6710   13.9670   27.6470 H       1  UNL1        0.0427
     17 H           4.2700   11.3840   27.3600 H       1  UNL1        0.0281
     18 H           3.2180   12.8040   25.0490 H       1  UNL1        0.0328
     19 H          -2.1950    9.2940   23.2250 H       1  UNL1        0.1453
     20 H           7.7010   12.0450   24.0780 H       1  UNL1        0.0278
     21 H           7.3700    7.1630   22.0520 H       1  UNL1        0.0350
     22 H           3.9280    7.3170   23.8890 H       1  UNL1        0.0333
     23 H           4.2590    8.2700   20.3160 H       1  UNL1        0.0235
     24 H           5.5520    5.5780   21.0740 H       1  UNL1        0.0235
     25 H          -0.1490   10.0400   29.2170 H       1  UNL1        0.0476
     26 H           0.1510   12.8610   30.7880 H       1  UNL1        0.0281
     27 H           2.1600   12.8540   32.0310 H       1  UNL1        0.0278
     28 H           2.5690   14.0090   29.9370 H       1  UNL1        0.0427
     29 H           1.9220   12.6390   26.8170 H       1  UNL1        0.0427
     30 H           4.8490   13.0270   27.5000 H       1  UNL1        0.0281
     31 H           4.8580   13.3350   25.2560 H       1  UNL1        0.0328
     32 H           3.8400    5.9730   21.2940 H       1  UNL1        0.0235
     33 H           7.0230   12.4480   25.6640 H       1  UNL1        0.0278
     34 H           5.9690    7.8740   20.1080 H       1  UNL1        0.0235
     35 C           7.2320   11.6260   24.9740 C.3     1  UNL1       -0.0373
     36 C           5.9950   10.8790   24.6080 C.ar    1  UNL1       -0.0186
     37 C           4.6780   11.2410   24.8760 C.ar    1  UNL1        0.0277
     38 N           3.8400   10.2410   24.3820 N.ar    1  UNL1       -0.3161
     39 C           4.6200    9.3040   23.7340 C.ar    1  UNL1        0.0353
     40 C           5.9490    9.6540   23.8870 C.ar    1  UNL1        0.0416
     41 C           7.0240    8.8220   23.3540 C.2     1  UNL1        0.1657
     42 O           8.2070    9.1470   23.4230 O.2     1  UNL1       -0.2920
     43 C           6.6100    7.4710   22.7810 C.3     1  UNL1        0.0160
     44 C           5.2060    7.4700   22.1210 C.3     1  UNL1       -0.0225
     45 C           4.1340    8.0420   23.0910 C.3     1  UNL1       -0.0057
     46 C           5.2360    8.2860   20.8110 C.3     1  UNL1       -0.0591
     47 C           4.8270    6.0190   21.7670 C.3     1  UNL1       -0.0591
     48 C           2.4300   10.2040   24.5060 C.ar    1  UNL1        0.0484
     49 C           1.6320   10.2380   23.3660 C.ar    1  UNL1       -0.0370
     50 C           0.2490   10.3180   23.5140 C.ar    1  UNL1       -0.0459
     51 C          -0.3330   10.3820   24.7970 C.ar    1  UNL1        0.0574
     52 C           0.4730   10.3740   25.9640 C.ar    1  UNL1        0.0414
     53 C           1.8540   10.2230   25.7830 C.ar    1  UNL1       -0.0162
     54 N          -0.0890   10.4820   27.2250 N.pl3   1  UNL1       -0.3417
     55 C           0.5800   10.4750   28.5220 C.3     1  UNL1        0.0247
     56 C           0.9710   11.8950   29.0300 C.3     1  UNL1        0.0259
     57 C           0.7930   12.0010   30.5590 C.3     1  UNL1       -0.0347
     58 C           2.1830   12.2540   31.1160 C.3     1  UNL1       -0.0387
     59 C           2.8820   12.9580   29.9760 C.3     1  UNL1       -0.0007
     60 N           2.4060   12.2020   28.8190 N.3     1  UNL1       -0.2979
     61 C           2.6950   12.8740   27.5520 C.3     1  UNL1       -0.0004
     62 C           4.0670   12.4120   27.0350 C.3     1  UNL1       -0.0348
     63 C           4.1710   12.5170   25.5080 C.3     1  UNL1       -0.0105
     64 C          -1.8190   10.4980   24.9120 C.2     1  UNL1        0.2433
     65 O          -2.3630   11.0850   25.8410 O.2     1  UNL1       -0.2704
     66 N          -2.5740    9.8870   23.9470 N.am    1  UNL1       -0.3253
@<TRIPOS>BOND
     1    34    46    1
     2    23    46    1
     3    46     5    1
     4    46    44    1
     5    24    47    1
     6    32    47    1
     7    47    44    1
     8    47     6    1
     9    21    43    1
    10    44    43    1
    11    44    45    1
    12     7    49    1
    13     4    45    1
    14     8    50    1
    15    43    41    1
    16    43     3    1
    17    45    39    1
    18    45    22    1
    19    19    66    1
    20    41    42    2
    21    41    40    1
    22    49    50   ar
    23    49    48   ar
    24    50    51   ar
    25    39    40   ar
    26    39    38   ar
    27    40    36   ar
    28    66     1    1
    29    66    64   am
    30    20    35    1
    31    38    48    1
    32    38    37   ar
    33    48    53   ar
    34    36    37   ar
    35    36    35    1
    36    51    64    1
    37    51    52   ar
    38    37    63    1
    39    64    65    2
    40    35     2    1
    41    35    33    1
    42    18    63    1
    43    31    63    1
    44    63    62    1
    45    53    52   ar
    46    53     9    1
    47    52    54    1
    48    29    61    1
    49    62    17    1
    50    62    30    1
    51    62    61    1
    52    54    10    1
    53    54    55    1
    54    61    16    1
    55    61    60    1
    56    55    11    1
    57    55    56    1
    58    55    25    1
    59    12    56    1
    60    60    56    1
    61    60    59    1
    62    56    57    1
    63    28    59    1
    64    59    15    1
    65    59    58    1
    66    57    26    1
    67    57    13    1
    68    57    58    1
    69    58    14    1
    70    58    27    1
