@<TRIPOS>MOLECULE
152.39025
 66 70 0 0 0
SMALL
GASTEIGER

@<TRIPOS>ATOM
      1 H          11.4370    0.9130   24.5770 H       1  UNL1        0.1453
      2 H           3.7660    5.4910   17.7830 H       1  UNL1        0.0278
      3 H           6.6580    2.5340   15.3580 H       1  UNL1        0.0350
      4 H           6.7730    0.1460   18.4030 H       1  UNL1        0.0333
      5 H           4.0070    0.4340   17.2210 H       1  UNL1        0.0235
      6 H           7.9570    0.4200   15.4040 H       1  UNL1        0.0235
      7 H           8.5710    1.9360   19.6000 H       1  UNL1        0.0638
      8 H          10.0890    1.0980   21.3050 H       1  UNL1        0.0626
      9 H           5.2430    1.2830   22.2510 H       1  UNL1        0.0657
     10 H           7.4240    0.5560   25.0880 H       1  UNL1        0.1461
     11 H           5.5500    1.0380   26.1100 H       1  UNL1        0.0476
     12 H           3.9970    2.1240   23.7640 H       1  UNL1        0.0478
     13 H           3.8560    2.3640   26.7830 H       1  UNL1        0.0281
     14 H           2.4940    4.2310   26.5270 H       1  UNL1        0.0278
     15 H           4.1860    5.4720   25.5140 H       1  UNL1        0.0427
     16 H           6.8080    3.4400   23.6220 H       1  UNL1        0.0427
     17 H           6.4760    4.7630   21.7050 H       1  UNL1        0.0281
     18 H           4.1350    2.9600   22.0560 H       1  UNL1        0.0328
     19 H          11.0570    1.8240   23.1490 H       1  UNL1        0.1453
     20 H           2.5230    4.5300   18.6150 H       1  UNL1        0.0278
     21 H           5.1760    1.7950   14.7310 H       1  UNL1        0.0350
     22 H           7.7320    1.4090   17.6120 H       1  UNL1        0.0333
     23 H           4.9760   -1.0400   17.1580 H       1  UNL1        0.0235
     24 H           6.5910   -0.3850   14.6210 H       1  UNL1        0.0235
     25 H           4.8330    0.1810   24.7680 H       1  UNL1        0.0476
     26 H           2.6800    1.6280   25.6800 H       1  UNL1        0.0281
     27 H           1.9330    3.7210   24.9250 H       1  UNL1        0.0278
     28 H           3.5000    5.0000   23.9510 H       1  UNL1        0.0427
     29 H           6.4970    5.0180   24.1570 H       1  UNL1        0.0427
     30 H           5.1520    5.6420   22.4090 H       1  UNL1        0.0281
     31 H           3.6510    4.4410   21.3860 H       1  UNL1        0.0328
     32 H           7.2790   -1.0540   16.1090 H       1  UNL1        0.0235
     33 H           3.5590    5.6580   19.5170 H       1  UNL1        0.0278
     34 H           4.3000   -0.3600   15.6720 H       1  UNL1        0.0235
     35 C           3.5370    4.9340   18.6960 C.3     1  UNL1       -0.0373
     36 C           4.5160    3.8280   18.9150 C.ar    1  UNL1       -0.0186
     37 C           4.9730    3.3370   20.1400 C.ar    1  UNL1        0.0277
     38 N           5.9260    2.3390   19.8810 N.ar    1  UNL1       -0.3161
     39 C           5.9570    2.1360   18.5090 C.ar    1  UNL1        0.0353
     40 C           5.1110    3.0400   17.8960 C.ar    1  UNL1        0.0416
     41 C           4.9110    3.0390   16.4480 C.2     1  UNL1        0.1657
     42 O           4.1680    3.8370   15.8810 O.2     1  UNL1       -0.2920
     43 C           5.7280    2.0290   15.6490 C.3     1  UNL1        0.0160
     44 C           6.0450    0.7250   16.4270 C.3     1  UNL1       -0.0225
     45 C           6.7100    1.0540   17.7930 C.3     1  UNL1       -0.0057
     46 C           4.7590   -0.1020   16.6340 C.3     1  UNL1       -0.0591
     47 C           7.0240   -0.1220   15.5930 C.3     1  UNL1       -0.0591
     48 C           6.7900    1.7140   20.8280 C.ar    1  UNL1        0.0484
     49 C           8.1560    1.6160   20.5510 C.ar    1  UNL1       -0.0370
     50 C           9.0330    1.1840   21.5430 C.ar    1  UNL1       -0.0459
     51 C           8.5590    0.9230   22.8380 C.ar    1  UNL1        0.0574
     52 C           7.1740    0.9960   23.1330 C.ar    1  UNL1        0.0414
     53 C           6.3080    1.3130   22.0790 C.ar    1  UNL1       -0.0162
     54 N           6.7340    0.9570   24.4430 N.pl3   1  UNL1       -0.3417
     55 C           5.4040    1.0830   25.0230 C.3     1  UNL1        0.0247
     56 C           4.5220    2.3260   24.6970 C.3     1  UNL1        0.0259
     57 C           3.4270    2.4230   25.7740 C.3     1  UNL1       -0.0347
     58 C           2.8120    3.7940   25.5750 C.3     1  UNL1       -0.0387
     59 C           3.8970    4.6160   24.8960 C.3     1  UNL1       -0.0007
     60 N           5.0300    3.7070   24.7210 N.3     1  UNL1       -0.2979
     61 C           5.9900    4.1490   23.7110 C.3     1  UNL1       -0.0004
     62 C           5.5620    4.6280   22.2970 C.3     1  UNL1       -0.0348
     63 C           4.5370    3.8040   21.5130 C.3     1  UNL1       -0.0105
     64 C           9.5380    0.5820   23.9150 C.2     1  UNL1        0.2433
     65 O           9.2400   -0.1330   24.8650 O.2     1  UNL1       -0.2704
     66 N          10.7890    1.1310   23.8310 N.am    1  UNL1       -0.3253
@<TRIPOS>BOND
     1    24    47    1
     2    21    43    1
     3     3    43    1
     4     6    47    1
     5    47    32    1
     6    47    44    1
     7    43    44    1
     8    43    41    1
     9    34    46    1
    10    42    41    2
    11    44    46    1
    12    44    45    1
    13    41    40    1
    14    46    23    1
    15    46     5    1
    16    22    45    1
    17     2    35    1
    18    45     4    1
    19    45    39    1
    20    40    39   ar
    21    40    36   ar
    22    39    38   ar
    23    20    35    1
    24    35    36    1
    25    35    33    1
    26    36    37   ar
    27     7    49    1
    28    38    37   ar
    29    38    48    1
    30    37    63    1
    31    49    48   ar
    32    49    50   ar
    33    48    53   ar
    34     8    50    1
    35    31    63    1
    36    63    18    1
    37    63    62    1
    38    50    51   ar
    39    17    62    1
    40    53     9    1
    41    53    52   ar
    42    62    30    1
    43    62    61    1
    44    51    52   ar
    45    51    64    1
    46    52    54    1
    47    19    66    1
    48    16    61    1
    49    61    29    1
    50    61    60    1
    51    12    56    1
    52    66    64   am
    53    66     1    1
    54    64    65    2
    55    28    59    1
    56    54    55    1
    57    54    10    1
    58    56    60    1
    59    56    55    1
    60    56    57    1
    61    60    59    1
    62    25    55    1
    63    59    15    1
    64    59    58    1
    65    27    58    1
    66    55    11    1
    67    58    57    1
    68    58    14    1
    69    26    57    1
    70    57    13    1
