@<TRIPOS>MOLECULE
137.48084
 66 70 0 0 0
SMALL
GASTEIGER

@<TRIPOS>ATOM
      1 H          -3.3920   11.2220   24.7510 H       1  UNL1        0.1453
      2 H           7.6690    9.6130   22.2600 H       1  UNL1        0.0278
      3 H           6.2850   14.2060   21.8850 H       1  UNL1        0.0350
      4 H           3.7850   13.6830   24.7920 H       1  UNL1        0.0333
      5 H           6.6670   13.3270   25.6260 H       1  UNL1        0.0235
      6 H           4.7790   15.9810   22.7450 H       1  UNL1        0.0235
      7 H           2.0850   12.3990   23.0430 H       1  UNL1        0.0638
      8 H          -0.2560   12.4770   23.6790 H       1  UNL1        0.0626
      9 H           2.8730    9.7450   26.3450 H       1  UNL1        0.0657
     10 H          -0.6020    9.4610   27.2830 H       1  UNL1        0.1461
     11 H           0.4440    7.5230   28.0260 H       1  UNL1        0.0476
     12 H           0.8600    5.9740   26.2320 H       1  UNL1        0.0478
     13 H          -1.5770    7.5600   26.2800 H       1  UNL1        0.0281
     14 H          -1.2730    8.4040   24.0940 H       1  UNL1        0.0278
     15 H           0.4420    7.5120   22.6580 H       1  UNL1        0.0427
     16 H           2.4680    5.8270   23.9130 H       1  UNL1        0.0427
     17 H           2.7970    8.5060   23.1300 H       1  UNL1        0.0281
     18 H           4.1360    8.4480   25.6200 H       1  UNL1        0.0328
     19 H          -2.1170   11.3890   23.5850 H       1  UNL1        0.1453
     20 H           7.9480    9.3100   23.9890 H       1  UNL1        0.0278
     21 H           7.6170   14.5820   22.9890 H       1  UNL1        0.0350
     22 H           3.8360   13.7590   23.0210 H       1  UNL1        0.0333
     23 H           5.6260   14.6530   26.1520 H       1  UNL1        0.0235
     24 H           6.1020   16.5460   23.7730 H       1  UNL1        0.0235
     25 H           1.9680    7.9580   27.2950 H       1  UNL1        0.0476
     26 H          -1.3140    5.8940   25.7610 H       1  UNL1        0.0281
     27 H          -1.9220    6.8090   23.6810 H       1  UNL1        0.0278
     28 H           0.2830    5.8890   23.3780 H       1  UNL1        0.0427
     29 H           2.9950    6.5500   25.4100 H       1  UNL1        0.0427
     30 H           3.9430    7.2160   22.8790 H       1  UNL1        0.0281
     31 H           5.3310    7.7920   24.5920 H       1  UNL1        0.0328
     32 H           4.5170   16.1960   24.4820 H       1  UNL1        0.0235
     33 H           6.8700    8.2630   23.0440 H       1  UNL1        0.0278
     34 H           7.2030   14.9980   25.4300 H       1  UNL1        0.0235
     35 C           7.1960    9.2960   23.1940 C.3     1  UNL1       -0.0373
     36 C           6.0550   10.1910   23.5470 C.ar    1  UNL1       -0.0186
     37 C           4.8470    9.8250   24.1430 C.ar    1  UNL1        0.0277
     38 N           4.0370   10.9690   24.2360 N.ar    1  UNL1       -0.3161
     39 C           4.8020   12.0510   23.8200 C.ar    1  UNL1        0.0353
     40 C           6.0320   11.5990   23.3810 C.ar    1  UNL1        0.0416
     41 C           7.0640   12.5200   22.9100 C.2     1  UNL1        0.1657
     42 O           8.1580   12.1370   22.5010 O.2     1  UNL1       -0.2920
     43 C           6.6950   13.9990   22.8820 C.3     1  UNL1        0.0160
     44 C           5.6760   14.4080   23.9770 C.3     1  UNL1       -0.0225
     45 C           4.4160   13.4990   23.9150 C.3     1  UNL1       -0.0057
     46 C           6.3300   14.3370   25.3730 C.3     1  UNL1       -0.0591
     47 C           5.2440   15.8660   23.7300 C.3     1  UNL1       -0.0591
     48 C           2.6630   11.0320   24.6290 C.ar    1  UNL1        0.0484
     49 C           1.7660   11.8220   23.9060 C.ar    1  UNL1       -0.0370
     50 C           0.4100   11.8320   24.2430 C.ar    1  UNL1       -0.0459
     51 C          -0.0750   11.0110   25.2740 C.ar    1  UNL1        0.0574
     52 C           0.8170   10.2050   26.0160 C.ar    1  UNL1        0.0414
     53 C           2.1830   10.2740   25.7010 C.ar    1  UNL1       -0.0162
     54 N           0.3620    9.3040   26.9760 N.pl3   1  UNL1       -0.3417
     55 C           0.8870    7.9450   27.1160 C.3     1  UNL1        0.0247
     56 C           0.5460    6.9860   25.9360 C.3     1  UNL1        0.0259
     57 C          -0.9610    6.9260   25.6360 C.3     1  UNL1       -0.0347
     58 C          -1.0950    7.3270   24.1770 C.3     1  UNL1       -0.0387
     59 C           0.2510    6.9660   23.5870 C.3     1  UNL1       -0.0007
     60 N           1.1830    7.3440   24.6500 N.3     1  UNL1       -0.2979
     61 C           2.5210    6.7840   24.4480 C.3     1  UNL1       -0.0004
     62 C           3.4080    7.7690   23.6630 C.3     1  UNL1       -0.0348
     63 C           4.4430    8.4380   24.5740 C.3     1  UNL1       -0.0105
     64 C          -1.5410   10.9810   25.5710 C.2     1  UNL1        0.2433
     65 O          -1.9860   10.6820   26.6740 O.2     1  UNL1       -0.2704
     66 N          -2.4030   11.2610   24.5430 N.am    1  UNL1       -0.3253
@<TRIPOS>BOND
     1     3    43    1
     2     2    35    1
     3    42    41    2
     4    15    59    1
     5     6    47    1
     6    30    62    1
     7    43    41    1
     8    43    21    1
     9    43    44    1
    10    41    40    1
    11    22    45    1
    12     7    49    1
    13    33    35    1
    14    17    62    1
    15    35    36    1
    16    35    20    1
    17    28    59    1
    18    40    36   ar
    19    40    39   ar
    20    36    37   ar
    21    19    66    1
    22    59    58    1
    23    59    60    1
    24    62    61    1
    25    62    63    1
    26     8    50    1
    27    27    58    1
    28    47    24    1
    29    47    44    1
    30    47    32    1
    31    39    45    1
    32    39    38   ar
    33    49    50   ar
    34    49    48   ar
    35    16    61    1
    36    45    44    1
    37    45     4    1
    38    44    46    1
    39    14    58    1
    40    37    38   ar
    41    37    63    1
    42    58    57    1
    43    38    48    1
    44    50    51   ar
    45    61    60    1
    46    61    29    1
    47    66     1    1
    48    66    64   am
    49    63    31    1
    50    63    18    1
    51    48    53   ar
    52    60    56    1
    53    51    64    1
    54    51    52   ar
    55    46    34    1
    56    46     5    1
    57    46    23    1
    58    64    65    2
    59    57    26    1
    60    57    56    1
    61    57    13    1
    62    53    52   ar
    63    53     9    1
    64    56    12    1
    65    56    55    1
    66    52    54    1
    67    54    55    1
    68    54    10    1
    69    55    25    1
    70    55    11    1
