@<TRIPOS>MOLECULE
137.07846
 66 70 0 0 0
SMALL
GASTEIGER

@<TRIPOS>ATOM
      1 H          -3.1450   11.7110   26.6960 H       1  UNL1        0.1453
      2 H           6.9880    9.7420   21.5810 H       1  UNL1        0.0278
      3 H           7.0360   14.4400   22.7340 H       1  UNL1        0.0350
      4 H           4.0310   13.8930   25.1340 H       1  UNL1        0.0333
      5 H           6.5630   12.6220   26.1050 H       1  UNL1        0.0235
      6 H           5.8430   16.2910   23.8860 H       1  UNL1        0.0235
      7 H           2.0860   13.4590   23.0020 H       1  UNL1        0.0638
      8 H          -0.2710   13.6720   23.6840 H       1  UNL1        0.0626
      9 H           2.5120   10.0780   25.6120 H       1  UNL1        0.0657
     10 H           0.7020    9.3780   26.8910 H       1  UNL1        0.1461
     11 H          -1.1600    9.2410   24.5680 H       1  UNL1        0.0476
     12 H           0.3940    7.1140   26.1880 H       1  UNL1        0.0478
     13 H          -2.0550    6.6320   24.9610 H       1  UNL1        0.0281
     14 H          -1.3200    7.3220   22.7510 H       1  UNL1        0.0278
     15 H           1.0050    7.0500   22.1310 H       1  UNL1        0.0427
     16 H           2.5490    6.4300   25.0270 H       1  UNL1        0.0427
     17 H           3.5100    6.9910   22.9210 H       1  UNL1        0.0281
     18 H           3.5500    8.9110   21.8260 H       1  UNL1        0.0328
     19 H          -1.5880   10.9410   26.9750 H       1  UNL1        0.1453
     20 H           7.2910    9.1210   23.2200 H       1  UNL1        0.0278
     21 H           8.2100   14.1750   24.0320 H       1  UNL1        0.0350
     22 H           4.3530   14.4070   23.4720 H       1  UNL1        0.0333
     23 H           5.7880   14.0120   26.8680 H       1  UNL1        0.0235
     24 H           7.0710   16.2230   25.1580 H       1  UNL1        0.0235
     25 H          -1.6620    8.6010   26.1250 H       1  UNL1        0.0476
     26 H          -0.7440    5.4470   25.0810 H       1  UNL1        0.0281
     27 H          -1.1270    5.5550   22.7100 H       1  UNL1        0.0278
     28 H           1.2030    5.6970   23.2690 H       1  UNL1        0.0427
     29 H           2.5380    8.0760   25.5740 H       1  UNL1        0.0427
     30 H           4.4540    7.7840   24.1640 H       1  UNL1        0.0281
     31 H           2.2560    9.4370   22.8390 H       1  UNL1        0.0328
     32 H           5.3530   16.1450   25.5800 H       1  UNL1        0.0235
     33 H           5.9920    8.4380   22.2330 H       1  UNL1        0.0278
     34 H           7.4990   14.0840   26.4280 H       1  UNL1        0.0235
     35 C           6.5110    9.3650   22.4920 C.3     1  UNL1       -0.0373
     36 C           5.5840   10.3880   23.0550 C.ar    1  UNL1       -0.0186
     37 C           4.2160   10.2580   23.2910 C.ar    1  UNL1        0.0277
     38 N           3.7500   11.4710   23.8060 N.ar    1  UNL1       -0.3161
     39 C           4.7940   12.3710   23.8160 C.ar    1  UNL1        0.0353
     40 C           5.9380   11.7260   23.3860 C.ar    1  UNL1        0.0416
     41 C           7.2240   12.4130   23.3290 C.2     1  UNL1        0.1657
     42 O           8.2560   11.8550   22.9610 O.2     1  UNL1       -0.2920
     43 C           7.2110   13.9000   23.6730 C.3     1  UNL1        0.0160
     44 C           6.1390   14.2900   24.7250 C.3     1  UNL1       -0.0225
     45 C           4.7300   13.7880   24.2960 C.3     1  UNL1       -0.0057
     46 C           6.5180   13.7160   26.1070 C.3     1  UNL1       -0.0591
     47 C           6.0990   15.8250   24.8440 C.3     1  UNL1       -0.0591
     48 C           2.4320   11.7220   24.2530 C.ar    1  UNL1        0.0484
     49 C           1.6760   12.7660   23.7310 C.ar    1  UNL1       -0.0370
     50 C           0.3330   12.8670   24.1010 C.ar    1  UNL1       -0.0459
     51 C          -0.2580   11.9300   24.9770 C.ar    1  UNL1        0.0574
     52 C           0.5220   10.8890   25.5240 C.ar    1  UNL1        0.0414
     53 C           1.8760   10.8380   25.1760 C.ar    1  UNL1       -0.0162
     54 N           0.0200    9.8040   26.2680 N.pl3   1  UNL1       -0.3417
     55 C          -0.7810    8.8220   25.5100 C.3     1  UNL1        0.0247
     56 C          -0.0240    7.4830   25.2420 C.3     1  UNL1        0.0259
     57 C          -1.0110    6.4400   24.6970 C.3     1  UNL1       -0.0347
     58 C          -0.7910    6.4730   23.2000 C.3     1  UNL1       -0.0387
     59 C           0.7070    6.6640   23.1100 C.3     1  UNL1       -0.0007
     60 N           1.0140    7.6160   24.1880 N.3     1  UNL1       -0.2979
     61 C           2.3870    7.4610   24.6840 C.3     1  UNL1       -0.0004
     62 C           3.4820    7.8080   23.6550 C.3     1  UNL1       -0.0348
     63 C           3.3010    9.1210   22.8770 C.3     1  UNL1       -0.0105
     64 C          -1.6980   12.1580   25.3070 C.2     1  UNL1        0.2433
     65 O          -2.4140   12.8830   24.6260 O.2     1  UNL1       -0.2704
     66 N          -2.1830   11.5590   26.4320 N.am    1  UNL1       -0.3253
@<TRIPOS>BOND
     1     2    35    1
     2    18    63    1
     3    15    59    1
     4    33    35    1
     5    35    36    1
     6    35    20    1
     7    27    58    1
     8     3    43    1
     9    14    58    1
    10    31    63    1
    11    63    37    1
    12    63    62    1
    13    17    62    1
    14    42    41    2
    15     7    49    1
    16    36    37   ar
    17    36    40   ar
    18    59    58    1
    19    59    28    1
    20    59    60    1
    21    58    57    1
    22    37    38   ar
    23    41    40    1
    24    41    43    1
    25    40    39   ar
    26    22    45    1
    27    62    30    1
    28    62    61    1
    29    43    21    1
    30    43    44    1
    31     8    50    1
    32    49    50   ar
    33    49    48   ar
    34    38    39   ar
    35    38    48    1
    36    39    45    1
    37     6    47    1
    38    50    51   ar
    39    60    61    1
    40    60    56    1
    41    48    53   ar
    42    45    44    1
    43    45     4    1
    44    11    55    1
    45    65    64    2
    46    61    16    1
    47    61    29    1
    48    57    13    1
    49    57    26    1
    50    57    56    1
    51    44    47    1
    52    44    46    1
    53    47    24    1
    54    47    32    1
    55    51    64    1
    56    51    52   ar
    57    53    52   ar
    58    53     9    1
    59    56    55    1
    60    56    12    1
    61    64    66   am
    62    55    25    1
    63    55    54    1
    64    52    54    1
    65     5    46    1
    66    46    34    1
    67    46    23    1
    68    54    10    1
    69    66     1    1
    70    66    19    1
