@<TRIPOS>MOLECULE
143.47281
 66 70 0 0 0
SMALL
GASTEIGER

@<TRIPOS>ATOM
      1 H           2.2650    0.4630   26.7240 H       1  UNL1        0.1453
      2 H           6.4840    5.1770   17.2650 H       1  UNL1        0.0278
      3 H           8.0390    0.6690   17.9720 H       1  UNL1        0.0350
      4 H           4.5810   -0.2730   19.4220 H       1  UNL1        0.0333
      5 H           4.4600    0.6010   16.5220 H       1  UNL1        0.0235
      6 H           7.4520   -1.6020   18.7810 H       1  UNL1        0.0235
      7 H           5.3350    0.9150   21.7500 H       1  UNL1        0.0638
      8 H           4.2800    0.1560   23.7960 H       1  UNL1        0.0626
      9 H           1.6440    2.8120   20.5730 H       1  UNL1        0.0657
     10 H          -0.0440    2.1520   23.5860 H       1  UNL1        0.1461
     11 H           1.7860    4.2040   23.6130 H       1  UNL1        0.0476
     12 H           0.5350    4.6230   21.1640 H       1  UNL1        0.0478
     13 H          -1.7060    4.8450   22.7490 H       1  UNL1        0.0281
     14 H          -0.8160    6.6530   24.1200 H       1  UNL1        0.0278
     15 H           0.7840    8.1960   23.1590 H       1  UNL1        0.0427
     16 H           2.7260    7.4880   21.4300 H       1  UNL1        0.0427
     17 H           3.3090    4.7690   21.7760 H       1  UNL1        0.0281
     18 H           2.0600    4.3820   19.4860 H       1  UNL1        0.0328
     19 H           3.6750    0.8280   25.7820 H       1  UNL1        0.1453
     20 H           4.8650    5.0830   16.5360 H       1  UNL1        0.0278
     21 H           7.5140    0.3830   16.3050 H       1  UNL1        0.0350
     22 H           6.2260    0.1480   19.9350 H       1  UNL1        0.0333
     23 H           4.1470   -1.0400   17.0910 H       1  UNL1        0.0235
     24 H           7.0560   -2.0470   17.1160 H       1  UNL1        0.0235
     25 H           0.1370    4.2960   24.1720 H       1  UNL1        0.0476
     26 H          -1.4390    5.7810   21.2680 H       1  UNL1        0.0281
     27 H          -1.7910    7.5070   22.9050 H       1  UNL1        0.0278
     28 H           0.1170    7.9480   21.5310 H       1  UNL1        0.0427
     29 H           1.6360    6.7570   20.2640 H       1  UNL1        0.0427
     30 H           4.2530    5.9690   20.9420 H       1  UNL1        0.0281
     31 H           3.0980    5.5660   18.8230 H       1  UNL1        0.0328
     32 H           5.8810   -2.3260   18.4110 H       1  UNL1        0.0235
     33 H           5.1430    6.0180   18.0210 H       1  UNL1        0.0278
     34 H           5.3310   -0.7580   15.8080 H       1  UNL1        0.0235
     35 C           5.4140    5.1050   17.4820 C.3     1  UNL1       -0.0373
     36 C           5.1060    3.8840   18.2860 C.ar    1  UNL1       -0.0186
     37 C           4.0980    3.7380   19.2430 C.ar    1  UNL1        0.0277
     38 N           4.2280    2.4600   19.8190 N.ar    1  UNL1       -0.3161
     39 C           5.1710    1.7680   19.0650 C.ar    1  UNL1        0.0353
     40 C           5.7420    2.6260   18.1460 C.ar    1  UNL1        0.0416
     41 C           6.7570    2.1710   17.1980 C.2     1  UNL1        0.1657
     42 O           7.2950    2.9250   16.3890 O.2     1  UNL1       -0.2920
     43 C           7.1750    0.7080   17.2960 C.3     1  UNL1        0.0160
     44 C           6.0500   -0.2290   17.8070 C.3     1  UNL1       -0.0225
     45 C           5.4750    0.3000   19.1510 C.3     1  UNL1       -0.0057
     46 C           4.9340   -0.3580   16.7490 C.3     1  UNL1       -0.0591
     47 C           6.6440   -1.6310   18.0420 C.3     1  UNL1       -0.0591
     48 C           3.5810    1.9550   20.9920 C.ar    1  UNL1        0.0484
     49 C           4.2940    1.1760   21.9120 C.ar    1  UNL1       -0.0370
     50 C           3.7040    0.7780   23.1170 C.ar    1  UNL1       -0.0459
     51 C           2.4140    1.2130   23.4530 C.ar    1  UNL1        0.0574
     52 C           1.6850    1.9930   22.5330 C.ar    1  UNL1        0.0414
     53 C           2.2650    2.2970   21.2920 C.ar    1  UNL1       -0.0162
     54 N           0.5020    2.6790   22.8930 N.pl3   1  UNL1       -0.3417
     55 C           0.7450    4.0810   23.2840 C.3     1  UNL1        0.0247
     56 C           0.4140    5.0850   22.1460 C.3     1  UNL1        0.0259
     57 C          -1.0380    5.5650   22.2670 C.3     1  UNL1       -0.0347
     58 C          -0.9240    6.8570   23.0480 C.3     1  UNL1       -0.0387
     59 C           0.3490    7.4540   22.4830 C.3     1  UNL1       -0.0007
     60 N           1.2510    6.3040   22.2970 N.3     1  UNL1       -0.2979
     61 C           2.1900    6.5590   21.1910 C.3     1  UNL1       -0.0004
     62 C           3.2690    5.4800   20.9470 C.3     1  UNL1       -0.0348
     63 C           3.0670    4.7870   19.5970 C.3     1  UNL1       -0.0105
     64 C           1.8210    0.8760   24.7790 C.2     1  UNL1        0.2433
     65 O           0.6090    0.8070   24.9520 O.2     1  UNL1       -0.2704
     66 N           2.6790    0.6770   25.8260 N.am    1  UNL1       -0.3253
@<TRIPOS>BOND
     1    34    46    1
     2    21    43    1
     3    42    41    2
     4     5    46    1
     5    20    35    1
     6    46    23    1
     7    46    44    1
     8    24    47    1
     9    41    43    1
    10    41    40    1
    11     2    35    1
    12    43    44    1
    13    43     3    1
    14    35    33    1
    15    35    36    1
    16    44    47    1
    17    44    45    1
    18    47    32    1
    19    47     6    1
    20    40    36   ar
    21    40    39   ar
    22    36    37   ar
    23    31    63    1
    24    39    45    1
    25    39    38   ar
    26    45     4    1
    27    45    22    1
    28    37    63    1
    29    37    38   ar
    30    18    63    1
    31    63    62    1
    32    38    48    1
    33    29    61    1
    34     9    53    1
    35    30    62    1
    36    62    61    1
    37    62    17    1
    38    48    53   ar
    39    48    49   ar
    40    12    56    1
    41    61    16    1
    42    61    60    1
    43    26    57    1
    44    53    52   ar
    45    28    59    1
    46     7    49    1
    47    49    50   ar
    48    56    57    1
    49    56    60    1
    50    56    55    1
    51    57    13    1
    52    57    58    1
    53    60    59    1
    54    59    58    1
    55    59    15    1
    56    52    54    1
    57    52    51   ar
    58    54    55    1
    59    54    10    1
    60    27    58    1
    61    58    14    1
    62    50    51   ar
    63    50     8    1
    64    55    11    1
    65    55    25    1
    66    51    64    1
    67    64    65    2
    68    64    66   am
    69    19    66    1
    70    66     1    1
