@<TRIPOS>MOLECULE
137.65367
 66 70 0 0 0
SMALL
GASTEIGER

@<TRIPOS>ATOM
      1 H          -3.9120   12.1100   26.1710 H       1  UNL1        0.1453
      2 H           6.7270    8.4320   23.7450 H       1  UNL1        0.0278
      3 H           6.7170   13.1370   22.4940 H       1  UNL1        0.0350
      4 H           3.5160   13.6890   24.6200 H       1  UNL1        0.0333
      5 H           5.9490   13.1120   26.2760 H       1  UNL1        0.0235
      6 H           5.4460   15.2710   22.5360 H       1  UNL1        0.0235
      7 H           1.8170   12.2330   22.7850 H       1  UNL1        0.0638
      8 H          -0.5870   12.6830   23.0040 H       1  UNL1        0.0626
      9 H           1.8250   10.4800   26.7170 H       1  UNL1        0.0657
     10 H          -0.2210   10.7920   28.0320 H       1  UNL1        0.1461
     11 H          -1.4660    8.9900   25.9960 H       1  UNL1        0.0476
     12 H           0.7630    8.7490   27.9910 H       1  UNL1        0.0478
     13 H          -1.3730    7.5660   29.1500 H       1  UNL1        0.0281
     14 H          -2.2250    6.0790   27.5460 H       1  UNL1        0.0278
     15 H          -1.2850    6.5670   25.5360 H       1  UNL1        0.0427
     16 H           2.0240    6.0200   25.8870 H       1  UNL1        0.0427
     17 H           3.9030    7.4020   26.5950 H       1  UNL1        0.0281
     18 H           3.3220    7.6200   24.2800 H       1  UNL1        0.0328
     19 H          -2.4370   11.5440   26.9490 H       1  UNL1        0.1453
     20 H           6.9080    8.7240   25.4890 H       1  UNL1        0.0278
     21 H           7.7750   13.5550   23.8510 H       1  UNL1        0.0350
     22 H           3.9870   13.3620   22.9460 H       1  UNL1        0.0333
     23 H           5.1200   14.6700   26.2270 H       1  UNL1        0.0235
     24 H           6.5600   15.8530   23.7790 H       1  UNL1        0.0235
     25 H          -2.0460    9.0770   27.6430 H       1  UNL1        0.0476
     26 H           0.2010    6.7760   29.1250 H       1  UNL1        0.0281
     27 H          -0.8560    5.0640   28.0340 H       1  UNL1        0.0278
     28 H          -0.0790    5.3340   25.8360 H       1  UNL1        0.0427
     29 H           1.9350    6.3930   27.6000 H       1  UNL1        0.0427
     30 H           2.8470    8.6820   27.1150 H       1  UNL1        0.0281
     31 H           1.9430    8.6250   24.5880 H       1  UNL1        0.0328
     32 H           4.8120   15.9260   24.0520 H       1  UNL1        0.0235
     33 H           5.6860    7.5920   24.8970 H       1  UNL1        0.0278
     34 H           6.8630   14.5850   25.9410 H       1  UNL1        0.0235
     35 C           6.1840    8.5430   24.6890 C.3     1  UNL1       -0.0373
     36 C           5.2180    9.6750   24.6020 C.ar    1  UNL1       -0.0186
     37 C           3.8360    9.6280   24.7720 C.ar    1  UNL1        0.0277
     38 N           3.3300   10.9190   24.5990 N.ar    1  UNL1       -0.3161
     39 C           4.3770   11.7500   24.2540 C.ar    1  UNL1        0.0353
     40 C           5.5490   11.0180   24.2720 C.ar    1  UNL1        0.0416
     41 C           6.8400   11.6380   23.9900 C.2     1  UNL1        0.1657
     42 O           7.8940   11.0070   24.0090 O.2     1  UNL1       -0.2920
     43 C           6.8080   13.1100   23.5880 C.3     1  UNL1        0.0160
     44 C           5.6540   13.9150   24.2420 C.3     1  UNL1       -0.0225
     45 C           4.2840   13.2220   23.9930 C.3     1  UNL1       -0.0057
     46 C           5.9110   14.0750   25.7560 C.3     1  UNL1       -0.0591
     47 C           5.6160   15.3220   23.6170 C.3     1  UNL1       -0.0591
     48 C           1.9720   11.3030   24.7380 C.ar    1  UNL1        0.0484
     49 C           1.3100   11.9590   23.7050 C.ar    1  UNL1       -0.0370
     50 C          -0.0630   12.1920   23.8240 C.ar    1  UNL1       -0.0459
     51 C          -0.7810   11.7770   24.9650 C.ar    1  UNL1        0.0574
     52 C          -0.0970   11.1490   26.0290 C.ar    1  UNL1        0.0414
     53 C           1.2840   10.9420   25.8990 C.ar    1  UNL1       -0.0162
     54 N          -0.7270   10.6060   27.1680 N.pl3   1  UNL1       -0.3417
     55 C          -1.1480    9.1940   27.0270 C.3     1  UNL1        0.0247
     56 C          -0.0400    8.1900   27.5000 C.3     1  UNL1        0.0259
     57 C          -0.6030    7.1620   28.4840 C.3     1  UNL1       -0.0347
     58 C          -1.1320    6.0370   27.6140 C.3     1  UNL1       -0.0387
     59 C          -0.5070    6.2570   26.2440 C.3     1  UNL1       -0.0007
     60 N           0.4680    7.3560   26.3790 N.3     1  UNL1       -0.2979
     61 C           1.8300    6.8310   26.6010 C.3     1  UNL1       -0.0004
     62 C           2.9370    7.8760   26.3820 C.3     1  UNL1       -0.0348
     63 C           2.9550    8.4120   24.9460 C.3     1  UNL1       -0.0105
     64 C          -2.2470   12.0800   24.9660 C.2     1  UNL1        0.2433
     65 O          -2.8250   12.4950   23.9680 O.2     1  UNL1       -0.2704
     66 N          -2.9250   11.9030   26.1340 N.am    1  UNL1       -0.3253
@<TRIPOS>BOND
     1     3    43    1
     2     6    47    1
     3     7    49    1
     4    22    45    1
     5     8    50    1
     6    43    21    1
     7    43    41    1
     8    43    44    1
     9    47    24    1
    10    47    32    1
    11    47    44    1
    12    49    50   ar
    13    49    48   ar
    14     2    35    1
    15    50    51   ar
    16    65    64    2
    17    41    42    2
    18    41    40    1
    19    45    44    1
    20    45    39    1
    21    45     4    1
    22    44    46    1
    23    39    40   ar
    24    39    38   ar
    25    40    36   ar
    26    18    63    1
    27    31    63    1
    28    38    48    1
    29    38    37   ar
    30    36    35    1
    31    36    37   ar
    32    35    33    1
    33    35    20    1
    34    48    53   ar
    35    37    63    1
    36    63    62    1
    37    51    64    1
    38    51    52   ar
    39    64    66   am
    40    15    59    1
    41    46    34    1
    42    46    23    1
    43    46     5    1
    44    28    59    1
    45    16    61    1
    46    53    52   ar
    47    53     9    1
    48    11    55    1
    49    52    54    1
    50    66     1    1
    51    66    19    1
    52    59    60    1
    53    59    58    1
    54    60    61    1
    55    60    56    1
    56    62    17    1
    57    62    61    1
    58    62    30    1
    59    61    29    1
    60    55    54    1
    61    55    56    1
    62    55    25    1
    63    54    10    1
    64    56    12    1
    65    56    57    1
    66    14    58    1
    67    58    27    1
    68    58    57    1
    69    57    26    1
    70    57    13    1
