@<TRIPOS>MOLECULE
144.84604
 66 70 0 0 0
SMALL
GASTEIGER

@<TRIPOS>ATOM
      1 H           2.4510    5.7560   15.9350 H       1  UNL1        0.1453
      2 H          -4.2910   10.3710   23.8460 H       1  UNL1        0.0278
      3 H          -6.5450    9.8730   19.6490 H       1  UNL1        0.0350
      4 H          -4.6120    6.5850   19.0000 H       1  UNL1        0.0333
      5 H          -6.3910    6.4570   21.4400 H       1  UNL1        0.0235
      6 H          -6.8400    8.4790   17.6170 H       1  UNL1        0.0235
      7 H          -2.4090    8.0740   18.2540 H       1  UNL1        0.0638
      8 H          -0.7530    7.0500   16.7990 H       1  UNL1        0.0626
      9 H          -1.2500    5.4120   21.4300 H       1  UNL1        0.0657
     10 H           1.5100    4.0060   19.6740 H       1  UNL1        0.1461
     11 H           1.9670    6.4280   20.8220 H       1  UNL1        0.0476
     12 H           0.3090    5.2680   22.7110 H       1  UNL1        0.0478
     13 H           3.0650    4.1540   23.3000 H       1  UNL1        0.0281
     14 H           2.6140    4.4030   25.5420 H       1  UNL1        0.0278
     15 H           2.0700    6.6700   25.6250 H       1  UNL1        0.0427
     16 H           2.1370    8.3420   22.6140 H       1  UNL1        0.0427
     17 H           0.1880    7.8460   21.3690 H       1  UNL1        0.0281
     18 H          -1.2290    6.5550   23.1680 H       1  UNL1        0.0328
     19 H           1.3760    7.0520   16.3520 H       1  UNL1        0.1453
     20 H          -4.1640    8.8070   24.6800 H       1  UNL1        0.0278
     21 H          -7.7990    9.0480   20.5880 H       1  UNL1        0.0350
     22 H          -4.6000    8.2990   18.5460 H       1  UNL1        0.0333
     23 H          -6.6600    5.5450   19.9520 H       1  UNL1        0.0235
     24 H          -8.2190    7.7000   18.4030 H       1  UNL1        0.0235
     25 H           2.8910    4.9840   21.1510 H       1  UNL1        0.0476
     26 H           1.5200    3.2870   23.2280 H       1  UNL1        0.0281
     27 H           0.8810    4.0930   25.3350 H       1  UNL1        0.0278
     28 H           0.3970    6.3130   25.1420 H       1  UNL1        0.0427
     29 H           1.2880    8.5020   24.1130 H       1  UNL1        0.0427
     30 H          -0.0670    9.2710   22.3140 H       1  UNL1        0.0281
     31 H          -1.3600    8.0520   24.0000 H       1  UNL1        0.0328
     32 H          -6.9140    6.7140   17.7230 H       1  UNL1        0.0235
     33 H          -2.7150    9.7670   24.3140 H       1  UNL1        0.0278
     34 H          -7.9550    6.5420   20.6260 H       1  UNL1        0.0235
     35 C          -3.6940    9.4590   23.9370 C.3     1  UNL1       -0.0373
     36 C          -3.5790    8.7480   22.6290 C.ar    1  UNL1       -0.0186
     37 C          -2.5140    7.9530   22.1940 C.ar    1  UNL1        0.0277
     38 N          -2.7980    7.5290   20.8810 N.ar    1  UNL1       -0.3161
     39 C          -4.0800    7.9610   20.5710 C.ar    1  UNL1        0.0353
     40 C          -4.5740    8.7160   21.6170 C.ar    1  UNL1        0.0416
     41 C          -5.9240    9.2750   21.5860 C.2     1  UNL1        0.1657
     42 O          -6.3800    9.9590   22.5000 O.2     1  UNL1       -0.2920
     43 C          -6.7360    9.0260   20.3200 C.3     1  UNL1        0.0160
     44 C          -6.3930    7.6910   19.6110 C.3     1  UNL1       -0.0225
     45 C          -4.8640    7.5950   19.3440 C.3     1  UNL1       -0.0057
     46 C          -6.8730    6.4940   20.4580 C.3     1  UNL1       -0.0591
     47 C          -7.1340    7.6430   18.2610 C.3     1  UNL1       -0.0591
     48 C          -1.9220    6.8470   19.9810 C.ar    1  UNL1        0.0484
     49 C          -1.7990    7.2700   18.6540 C.ar    1  UNL1       -0.0370
     50 C          -0.8130    6.7160   17.8300 C.ar    1  UNL1       -0.0459
     51 C           0.1090    5.7890   18.3450 C.ar    1  UNL1        0.0574
     52 C          -0.0190    5.3450   19.6780 C.ar    1  UNL1        0.0414
     53 C          -1.0890    5.8300   20.4450 C.ar    1  UNL1       -0.0162
     54 N           0.9980    4.6120   20.3270 N.pl3   1  UNL1       -0.3417
     55 C           1.8810    5.4060   21.2100 C.3     1  UNL1        0.0247
     56 C           1.3880    5.4060   22.6720 C.3     1  UNL1        0.0259
     57 C           1.9860    4.2470   23.4740 C.3     1  UNL1       -0.0347
     58 C           1.7390    4.6380   24.9270 C.3     1  UNL1       -0.0387
     59 C           1.4510    6.1360   24.8970 C.3     1  UNL1       -0.0007
     60 N           1.7650    6.5420   23.5260 N.3     1  UNL1       -0.2979
     61 C           1.3190    7.8970   23.1970 C.3     1  UNL1       -0.0004
     62 C           0.0340    8.1790   22.3950 C.3     1  UNL1       -0.0348
     63 C          -1.2610    7.6300   22.9930 C.3     1  UNL1       -0.0105
     64 C           1.2270    5.2860   17.4950 C.2     1  UNL1        0.2433
     65 O           1.7530    4.1960   17.6890 O.2     1  UNL1       -0.2704
     66 N           1.6850    6.1030   16.4980 N.am    1  UNL1       -0.3253
@<TRIPOS>BOND
     1     1    66    1
     2    19    66    1
     3    66    64   am
     4     8    50    1
     5    64    65    2
     6    64    51    1
     7     6    47    1
     8    32    47    1
     9    50    51   ar
    10    50    49   ar
    11     7    49    1
    12    47    24    1
    13    47    44    1
    14    51    52   ar
    15    22    45    1
    16    49    48   ar
    17     4    45    1
    18    45    44    1
    19    45    39    1
    20    44    43    1
    21    44    46    1
    22     3    43    1
    23    10    54    1
    24    52    54    1
    25    52    53   ar
    26    23    46    1
    27    48    53   ar
    28    48    38    1
    29    43    21    1
    30    43    41    1
    31    54    55    1
    32    53     9    1
    33    46    34    1
    34    46     5    1
    35    39    38   ar
    36    39    40   ar
    37    11    55    1
    38    38    37   ar
    39    25    55    1
    40    55    56    1
    41    17    62    1
    42    41    40    1
    43    41    42    2
    44    40    36   ar
    45    37    36   ar
    46    37    63    1
    47    30    62    1
    48    62    63    1
    49    62    61    1
    50    16    61    1
    51    36    35    1
    52    56    12    1
    53    56    57    1
    54    56    60    1
    55    63    18    1
    56    63    31    1
    57    61    60    1
    58    61    29    1
    59    26    57    1
    60    13    57    1
    61    57    58    1
    62    60    59    1
    63     2    35    1
    64    35    33    1
    65    35    20    1
    66    59    58    1
    67    59    28    1
    68    59    15    1
    69    58    27    1
    70    58    14    1
