@<TRIPOS>MOLECULE
150.23928
 66 70 0 0 0
SMALL
GASTEIGER

@<TRIPOS>ATOM
      1 H          -3.8800   11.1480   24.5660 H       1  UNL1        0.1453
      2 H           7.1020   12.2000   25.9400 H       1  UNL1        0.0278
      3 H           6.4770    7.2280   24.8240 H       1  UNL1        0.0350
      4 H           3.1520    8.2030   23.0630 H       1  UNL1        0.0333
      5 H           5.5980    9.0210   21.5240 H       1  UNL1        0.0235
      6 H           4.7990    5.5750   24.0500 H       1  UNL1        0.0235
      7 H           1.7030   11.7950   22.6750 H       1  UNL1        0.0638
      8 H          -0.7060   11.9110   23.1690 H       1  UNL1        0.0626
      9 H           2.2960    9.3390   26.1570 H       1  UNL1        0.0657
     10 H          -1.0160    9.6940   27.3700 H       1  UNL1        0.1461
     11 H          -0.1240   10.7380   29.0990 H       1  UNL1        0.0476
     12 H           2.0560   11.2740   29.6160 H       1  UNL1        0.0478
     13 H           1.7130    8.4600   28.6070 H       1  UNL1        0.0281
     14 H           3.8830    8.3430   27.9540 H       1  UNL1        0.0278
     15 H           5.1490   10.3450   27.7850 H       1  UNL1        0.0427
     16 H           4.4180   12.7130   27.6510 H       1  UNL1        0.0427
     17 H           2.4840   14.1130   26.5970 H       1  UNL1        0.0281
     18 H           3.0330   13.4740   24.2930 H       1  UNL1        0.0328
     19 H          -2.6550   10.9760   23.3490 H       1  UNL1        0.1453
     20 H           7.6020   12.1390   24.2360 H       1  UNL1        0.0278
     21 H           7.3800    7.2840   23.3020 H       1  UNL1        0.0350
     22 H           3.7380    7.6880   24.6500 H       1  UNL1        0.0333
     23 H           4.4710    7.7610   21.0150 H       1  UNL1        0.0235
     24 H           5.7300    5.4110   22.5560 H       1  UNL1        0.0235
     25 H           0.3510   11.8430   27.8390 H       1  UNL1        0.0476
     26 H           2.1210    9.0890   30.2060 H       1  UNL1        0.0281
     27 H           4.3260    8.5750   29.6530 H       1  UNL1        0.0278
     28 H           4.5960   10.9290   29.3750 H       1  UNL1        0.0427
     29 H           2.9460   13.0220   28.5370 H       1  UNL1        0.0427
     30 H           1.7610   12.6020   26.1790 H       1  UNL1        0.0281
     31 H           4.4060   13.8100   25.3030 H       1  UNL1        0.0328
     32 H           3.9950    5.7550   22.4840 H       1  UNL1        0.0235
     33 H           6.5090   13.4010   24.7770 H       1  UNL1        0.0278
     34 H           6.2030    7.4180   21.1010 H       1  UNL1        0.0235
     35 C           6.7650   12.3470   24.9090 C.3     1  UNL1       -0.0373
     36 C           5.6070   11.4540   24.6170 C.ar    1  UNL1       -0.0186
     37 C           4.2500   11.7740   24.6930 C.ar    1  UNL1        0.0277
     38 N           3.5270   10.6490   24.3010 N.ar    1  UNL1       -0.3161
     39 C           4.4060    9.6110   24.0930 C.ar    1  UNL1        0.0353
     40 C           5.6940   10.0760   24.2690 C.ar    1  UNL1        0.0416
     41 C           6.8430    9.1910   24.1070 C.2     1  UNL1        0.1657
     42 O           8.0010    9.5750   24.2510 O.2     1  UNL1       -0.2920
     43 C           6.5310    7.7190   23.8440 C.3     1  UNL1        0.0160
     44 C           5.2160    7.4800   23.0540 C.3     1  UNL1       -0.0225
     45 C           4.0230    8.2130   23.7290 C.3     1  UNL1       -0.0057
     46 C           5.3820    7.9510   21.5940 C.3     1  UNL1       -0.0591
     47 C           4.9180    5.9690   23.0350 C.3     1  UNL1       -0.0591
     48 C           2.1250   10.5210   24.3690 C.ar    1  UNL1        0.0484
     49 C           1.2970   11.2580   23.5290 C.ar    1  UNL1       -0.0370
     50 C          -0.0670   11.3250   23.8220 C.ar    1  UNL1       -0.0459
     51 C          -0.5710   10.7520   25.0090 C.ar    1  UNL1        0.0574
     52 C           0.3050   10.0810   25.8930 C.ar    1  UNL1        0.0414
     53 C           1.6210    9.8670   25.4900 C.ar    1  UNL1       -0.0162
     54 N          -0.0070    9.8300   27.2430 N.pl3   1  UNL1       -0.3417
     55 C           0.5160   10.8240   28.2100 C.3     1  UNL1        0.0247
     56 C           1.9820   10.6580   28.7060 C.3     1  UNL1        0.0259
     57 C           2.3040    9.2160   29.1330 C.3     1  UNL1       -0.0347
     58 C           3.7790    9.0170   28.8140 C.3     1  UNL1       -0.0387
     59 C           4.2920   10.3990   28.4630 C.3     1  UNL1       -0.0007
     60 N           3.1290   11.0370   27.8340 N.3     1  UNL1       -0.2979
     61 C           3.3440   12.4810   27.6700 C.3     1  UNL1       -0.0004
     62 C           2.7280   13.0610   26.3880 C.3     1  UNL1       -0.0348
     63 C           3.6160   13.0710   25.1300 C.3     1  UNL1       -0.0105
     64 C          -2.0160   10.9140   25.3580 C.2     1  UNL1        0.2433
     65 O          -2.4280   10.8780   26.5120 O.2     1  UNL1       -0.2704
     66 N          -2.9010   11.0610   24.3240 N.am    1  UNL1       -0.3253
@<TRIPOS>BOND
     1    23    46    1
     2    34    46    1
     3     5    46    1
     4    46    44    1
     5    32    47    1
     6    24    47    1
     7     7    49    1
     8    47    44    1
     9    47     6    1
    10    44    45    1
    11    44    43    1
    12     4    45    1
    13     8    50    1
    14    21    43    1
    15    19    66    1
    16    49    50   ar
    17    49    48   ar
    18    45    39    1
    19    45    22    1
    20    50    51   ar
    21    43    41    1
    22    43     3    1
    23    39    40   ar
    24    39    38   ar
    25    41    42    2
    26    41    40    1
    27    20    35    1
    28    40    36   ar
    29    18    63    1
    30    38    48    1
    31    38    37   ar
    32    66     1    1
    33    66    64   am
    34    48    53   ar
    35    36    37   ar
    36    36    35    1
    37    37    63    1
    38    33    35    1
    39    35     2    1
    40    51    64    1
    41    51    52   ar
    42    63    31    1
    43    63    62    1
    44    64    65    2
    45    53    52   ar
    46    53     9    1
    47    52    54    1
    48    30    62    1
    49    62    17    1
    50    62    61    1
    51    54    10    1
    52    54    55    1
    53    16    61    1
    54    61    60    1
    55    61    29    1
    56    15    59    1
    57    60    59    1
    58    60    56    1
    59    25    55    1
    60    14    58    1
    61    55    56    1
    62    55    11    1
    63    59    58    1
    64    59    28    1
    65    13    57    1
    66    56    57    1
    67    56    12    1
    68    58    57    1
    69    58    27    1
    70    57    26    1
