@<TRIPOS>MOLECULE
140.20709
 66 70 0 0 0
SMALL
GASTEIGER

@<TRIPOS>ATOM
      1 H          -3.3770   10.9820   24.5680 H       1  UNL1        0.1453
      2 H           7.9850   10.7470   25.1530 H       1  UNL1        0.0278
      3 H           6.5320    6.5310   23.0670 H       1  UNL1        0.0350
      4 H           3.1770    8.2230   22.0430 H       1  UNL1        0.0333
      5 H           5.5330    9.2120   20.4800 H       1  UNL1        0.0235
      6 H           4.6070    5.2910   22.1120 H       1  UNL1        0.0235
      7 H           2.0940   11.3900   22.3430 H       1  UNL1        0.0638
      8 H          -0.2660   11.6560   23.0080 H       1  UNL1        0.0626
      9 H           2.8220    9.0130   25.8350 H       1  UNL1        0.0657
     10 H          -0.4690    9.7440   27.2950 H       1  UNL1        0.1461
     11 H           1.9520    8.0570   27.6220 H       1  UNL1        0.0476
     12 H           1.5880   10.8470   28.9120 H       1  UNL1        0.0478
     13 H           2.1810    8.6650   30.4710 H       1  UNL1        0.0281
     14 H           4.0530    7.9190   29.0920 H       1  UNL1        0.0278
     15 H           5.3970    9.5520   27.9410 H       1  UNL1        0.0427
     16 H           3.4700   12.3670   28.4980 H       1  UNL1        0.0427
     17 H           5.5530   11.7630   26.9230 H       1  UNL1        0.0281
     18 H           3.3200   12.5560   24.9650 H       1  UNL1        0.0328
     19 H          -2.2280   10.6390   23.3110 H       1  UNL1        0.1453
     20 H           8.0020   11.5620   23.5730 H       1  UNL1        0.0278
     21 H           7.2780    6.9210   21.5090 H       1  UNL1        0.0350
     22 H           3.8410    7.2460   23.3570 H       1  UNL1        0.0333
     23 H           4.2290    8.2300   19.8060 H       1  UNL1        0.0235
     24 H           5.3620    5.4580   20.5220 H       1  UNL1        0.0235
     25 H           0.7010    8.4390   28.7730 H       1  UNL1        0.0476
     26 H           2.9350   10.2480   30.7150 H       1  UNL1        0.0281
     27 H           4.8290    8.7730   30.4440 H       1  UNL1        0.0278
     28 H           5.0710   10.7770   29.1870 H       1  UNL1        0.0427
     29 H           2.5040   12.0750   27.0670 H       1  UNL1        0.0427
     30 H           4.7960   13.3310   26.9820 H       1  UNL1        0.0281
     31 H           4.9310   13.1610   24.7540 H       1  UNL1        0.0328
     32 H           3.6780    5.9500   20.7580 H       1  UNL1        0.0235
     33 H           7.2250   12.3330   24.9600 H       1  UNL1        0.0278
     34 H           5.9130    7.7380   19.5850 H       1  UNL1        0.0235
     35 C           7.4020   11.3710   24.4690 C.3     1  UNL1       -0.0373
     36 C           6.1280   10.6890   24.1070 C.ar    1  UNL1       -0.0186
     37 C           4.8310   11.0920   24.4190 C.ar    1  UNL1        0.0277
     38 N           3.9540   10.1750   23.8540 N.ar    1  UNL1       -0.3161
     39 C           4.6770    9.1790   23.2470 C.ar    1  UNL1        0.0353
     40 C           6.0210    9.4650   23.3850 C.ar    1  UNL1        0.0416
     41 C           7.0420    8.5780   22.8410 C.2     1  UNL1        0.1657
     42 O           8.2430    8.8260   22.9170 O.2     1  UNL1       -0.2920
     43 C           6.5420    7.2620   22.2470 C.3     1  UNL1        0.0160
     44 C           5.1350    7.3520   21.5950 C.3     1  UNL1       -0.0225
     45 C           4.1010    7.9740   22.5780 C.3     1  UNL1       -0.0057
     46 C           5.2080    8.1830   20.2970 C.3     1  UNL1       -0.0591
     47 C           4.6690    5.9320   21.2250 C.3     1  UNL1       -0.0591
     48 C           2.5630   10.1610   24.0590 C.ar    1  UNL1        0.0484
     49 C           1.7220   10.9040   23.2410 C.ar    1  UNL1       -0.0370
     50 C           0.3920   11.0540   23.6290 C.ar    1  UNL1       -0.0459
     51 C          -0.0630   10.5190   24.8550 C.ar    1  UNL1        0.0574
     52 C           0.8210    9.8190   25.7130 C.ar    1  UNL1        0.0414
     53 C           2.1100    9.5740   25.2380 C.ar    1  UNL1       -0.0162
     54 N           0.4400    9.3960   26.9770 N.pl3   1  UNL1       -0.3417
     55 C           1.3440    8.8850   28.0040 C.3     1  UNL1        0.0247
     56 C           2.2260    9.9820   28.6850 C.3     1  UNL1        0.0259
     57 C           2.8020    9.4300   29.9960 C.3     1  UNL1       -0.0347
     58 C           4.1560    8.8900   29.5900 C.3     1  UNL1       -0.0387
     59 C           4.6330    9.9470   28.6180 C.3     1  UNL1       -0.0007
     60 N           3.4290   10.3630   27.8810 N.3     1  UNL1       -0.2979
     61 C           3.4440   11.7980   27.5580 C.3     1  UNL1       -0.0004
     62 C           4.6220   12.2870   26.6840 C.3     1  UNL1       -0.0348
     63 C           4.3670   12.3140   25.1700 C.3     1  UNL1       -0.0105
     64 C          -1.4760   10.7650   25.2740 C.2     1  UNL1        0.2433
     65 O          -1.8060   10.8750   26.4490 O.2     1  UNL1       -0.2704
     66 N          -2.4180   10.8330   24.2830 N.am    1  UNL1       -0.3253
@<TRIPOS>BOND
     1    34    46    1
     2    23    46    1
     3    46     5    1
     4    46    44    1
     5    24    47    1
     6    32    47    1
     7    47    44    1
     8    47     6    1
     9    21    43    1
    10    44    43    1
    11    44    45    1
    12     4    45    1
    13    43    41    1
    14    43     3    1
    15     7    49    1
    16    45    39    1
    17    45    22    1
    18    41    42    2
    19    41    40    1
    20     8    50    1
    21    49    50   ar
    22    49    48   ar
    23    39    40   ar
    24    39    38   ar
    25    19    66    1
    26    40    36   ar
    27    20    35    1
    28    50    51   ar
    29    38    48    1
    30    38    37   ar
    31    48    53   ar
    32    36    37   ar
    33    36    35    1
    34    66     1    1
    35    66    64   am
    36    37    63    1
    37    35    33    1
    38    35     2    1
    39    31    63    1
    40    51    64    1
    41    51    52   ar
    42    18    63    1
    43    63    62    1
    44    53    52   ar
    45    53     9    1
    46    64    65    2
    47    52    54    1
    48    62    17    1
    49    62    30    1
    50    62    61    1
    51    54    10    1
    52    54    55    1
    53    29    61    1
    54    61    60    1
    55    61    16    1
    56    11    55    1
    57    60    59    1
    58    60    56    1
    59    15    59    1
    60    55    56    1
    61    55    25    1
    62    59    28    1
    63    59    58    1
    64    56    12    1
    65    56    57    1
    66    14    58    1
    67    58    57    1
    68    58    27    1
    69    57    13    1
    70    57    26    1
