@<TRIPOS>MOLECULE
138.43361
 66 70 0 0 0
SMALL
GASTEIGER

@<TRIPOS>ATOM
      1 H          -4.0310   10.4160   25.6130 H       1  UNL1        0.1453
      2 H           6.9070   12.1160   26.2710 H       1  UNL1        0.0278
      3 H           6.2540    7.3620   25.1730 H       1  UNL1        0.0350
      4 H           3.0860    8.3100   23.1240 H       1  UNL1        0.0333
      5 H           5.6490    9.2000   21.8360 H       1  UNL1        0.0235
      6 H           4.6850    5.6950   24.2200 H       1  UNL1        0.0235
      7 H           1.7050   11.9340   22.5850 H       1  UNL1        0.0638
      8 H          -0.7560   12.0540   22.7710 H       1  UNL1        0.0626
      9 H           1.8460    9.4000   26.0580 H       1  UNL1        0.0657
     10 H          -0.1620    8.8980   27.1610 H       1  UNL1        0.1461
     11 H          -1.4390   10.5980   28.4970 H       1  UNL1        0.0476
     12 H           0.4360   11.9100   29.2870 H       1  UNL1        0.0478
     13 H           0.5850    8.9590   29.1460 H       1  UNL1        0.0281
     14 H           2.7870    8.9760   28.4380 H       1  UNL1        0.0278
     15 H           3.9490   11.0290   28.0900 H       1  UNL1        0.0427
     16 H           1.7500   13.5130   28.3320 H       1  UNL1        0.0427
     17 H           4.0680   13.1510   27.2580 H       1  UNL1        0.0281
     18 H           2.2950   13.2740   24.7500 H       1  UNL1        0.0328
     19 H          -2.5330    9.6780   26.1670 H       1  UNL1        0.1453
     20 H           7.2050   12.5250   24.5660 H       1  UNL1        0.0278
     21 H           7.2920    7.4640   23.7430 H       1  UNL1        0.0350
     22 H           3.5290    7.7780   24.7510 H       1  UNL1        0.0333
     23 H           4.5990    7.9290   21.2030 H       1  UNL1        0.0235
     24 H           5.7550    5.5740   22.8170 H       1  UNL1        0.0235
     25 H          -0.9800   11.7820   27.2910 H       1  UNL1        0.0476
     26 H           0.8920   10.0840   30.4670 H       1  UNL1        0.0281
     27 H           3.1230    9.4860   30.1020 H       1  UNL1        0.0278
     28 H           3.1520   11.8160   29.4800 H       1  UNL1        0.0427
     29 H           1.0280   13.1150   26.7830 H       1  UNL1        0.0427
     30 H           3.1090   14.5400   26.8310 H       1  UNL1        0.0281
     31 H           3.8750   13.9800   24.7790 H       1  UNL1        0.0328
     32 H           4.0270    5.8880   22.5890 H       1  UNL1        0.0235
     33 H           6.0940   13.5020   25.5320 H       1  UNL1        0.0278
     34 H           6.3220    7.6150   21.4450 H       1  UNL1        0.0235
     35 C           6.4410   12.4810   25.3500 C.3     1  UNL1       -0.0373
     36 C           5.3290   11.5780   24.9400 C.ar    1  UNL1       -0.0186
     37 C           3.9710   11.8830   24.8630 C.ar    1  UNL1        0.0277
     38 N           3.3030   10.7510   24.4050 N.ar    1  UNL1       -0.3161
     39 C           4.2100    9.7220   24.2910 C.ar    1  UNL1        0.0353
     40 C           5.4680   10.2040   24.5930 C.ar    1  UNL1        0.0416
     41 C           6.6440    9.3450   24.5280 C.2     1  UNL1        0.1657
     42 O           7.7750    9.7510   24.7880 O.2     1  UNL1       -0.2920
     43 C           6.3880    7.8730   24.2110 C.3     1  UNL1        0.0160
     44 C           5.1560    7.6240   23.2980 C.3     1  UNL1       -0.0225
     45 C           3.8900    8.3240   23.8690 C.3     1  UNL1       -0.0057
     46 C           5.4480    8.1240   21.8680 C.3     1  UNL1       -0.0591
     47 C           4.8910    6.1090   23.2270 C.3     1  UNL1       -0.0591
     48 C           1.9040   10.6220   24.2950 C.ar    1  UNL1        0.0484
     49 C           1.1940   11.3820   23.3700 C.ar    1  UNL1       -0.0370
     50 C          -0.1920   11.4660   23.4930 C.ar    1  UNL1       -0.0459
     51 C          -0.8550   10.8630   24.5800 C.ar    1  UNL1        0.0574
     52 C          -0.1170   10.1080   25.5230 C.ar    1  UNL1        0.0414
     53 C           1.2540    9.9230   25.3100 C.ar    1  UNL1       -0.0162
     54 N          -0.6050    9.7380   26.7960 N.pl3   1  UNL1       -0.3417
     55 C          -0.6550   10.8520   27.7730 C.3     1  UNL1        0.0247
     56 C           0.6620   11.1070   28.5700 C.3     1  UNL1        0.0259
     57 C           1.0940    9.8910   29.4070 C.3     1  UNL1       -0.0347
     58 C           2.5920    9.7560   29.1840 C.3     1  UNL1       -0.0387
     59 C           3.0130   11.1100   28.6510 C.3     1  UNL1       -0.0007
     60 N           1.8790   11.4860   27.8030 N.3     1  UNL1       -0.2979
     61 C           1.8910   12.9070   27.4270 C.3     1  UNL1       -0.0004
     62 C           3.1580   13.4470   26.7250 C.3     1  UNL1       -0.0348
     63 C           3.2760   13.1710   25.2190 C.3     1  UNL1       -0.0105
     64 C          -2.3330   11.0730   24.6560 C.2     1  UNL1        0.2433
     65 O          -2.9140   11.8790   23.9370 O.2     1  UNL1       -0.2704
     66 N          -3.0300   10.3110   25.5470 N.am    1  UNL1       -0.3253
@<TRIPOS>BOND
     1    23    46    1
     2    34    46    1
     3     5    46    1
     4    46    44    1
     5     7    49    1
     6    32    47    1
     7     8    50    1
     8    24    47    1
     9     4    45    1
    10    47    44    1
    11    47     6    1
    12    44    45    1
    13    44    43    1
    14    49    50   ar
    15    49    48   ar
    16    50    51   ar
    17    21    43    1
    18    45    39    1
    19    45    22    1
    20    65    64    2
    21    43    41    1
    22    43     3    1
    23    39    38   ar
    24    39    40   ar
    25    48    38    1
    26    48    53   ar
    27    38    37   ar
    28    41    40    1
    29    41    42    2
    30    20    35    1
    31    51    64    1
    32    51    52   ar
    33    40    36   ar
    34    64    66   am
    35    18    63    1
    36    31    63    1
    37    37    36   ar
    38    37    63    1
    39    36    35    1
    40    63    62    1
    41    53    52   ar
    42    53     9    1
    43    35    33    1
    44    35     2    1
    45    52    54    1
    46    66     1    1
    47    66    19    1
    48    62    30    1
    49    62    17    1
    50    62    61    1
    51    29    61    1
    52    54    10    1
    53    54    55    1
    54    25    55    1
    55    61    60    1
    56    61    16    1
    57    55    11    1
    58    55    56    1
    59    60    56    1
    60    60    59    1
    61    15    59    1
    62    14    58    1
    63    56    12    1
    64    56    57    1
    65    59    58    1
    66    59    28    1
    67    13    57    1
    68    58    57    1
    69    58    27    1
    70    57    26    1
