@<TRIPOS>MOLECULE
154.67090
 66 70 0 0 0
SMALL
GASTEIGER

@<TRIPOS>ATOM
      1 H          -3.0380   10.4560   24.6860 H       1  UNL1        0.1453
      2 H           8.2720    9.6060   23.1970 H       1  UNL1        0.0278
      3 H           6.7230   13.8120   21.6700 H       1  UNL1        0.0350
      4 H           3.8300   13.7440   24.2570 H       1  UNL1        0.0333
      5 H           6.5440   13.9130   25.5230 H       1  UNL1        0.0235
      6 H           4.9730   15.5670   21.8220 H       1  UNL1        0.0235
      7 H           2.3910   11.3710   22.5800 H       1  UNL1        0.0638
      8 H          -0.0180   11.4490   23.0670 H       1  UNL1        0.0626
      9 H           3.2080   11.0880   26.8060 H       1  UNL1        0.0657
     10 H          -0.1390   10.9150   27.8300 H       1  UNL1        0.1461
     11 H           0.6990    8.5850   26.6630 H       1  UNL1        0.0476
     12 H           2.7990    9.2080   28.4960 H       1  UNL1        0.0478
     13 H           0.7080    8.6190   30.2450 H       1  UNL1        0.0281
     14 H           0.4580    6.3260   29.4990 H       1  UNL1        0.0278
     15 H           2.3560    5.1630   28.5200 H       1  UNL1        0.0427
     16 H           3.6290    6.3110   26.3370 H       1  UNL1        0.0427
     17 H           4.0140    9.2520   26.8200 H       1  UNL1        0.0281
     18 H           5.6520    7.9620   25.3420 H       1  UNL1        0.0328
     19 H          -1.7050   10.1400   23.6200 H       1  UNL1        0.1453
     20 H           8.2950    9.6040   24.9740 H       1  UNL1        0.0278
     21 H           7.8260   14.5830   22.8200 H       1  UNL1        0.0350
     22 H           4.1190   13.3990   22.5470 H       1  UNL1        0.0333
     23 H           5.3490   15.2130   25.5400 H       1  UNL1        0.0235
     24 H           6.0720   16.5040   22.8430 H       1  UNL1        0.0235
     25 H          -0.1660    8.7380   28.1620 H       1  UNL1        0.0476
     26 H           2.4330    8.3800   30.5560 H       1  UNL1        0.0281
     27 H           1.5840    6.1660   30.8650 H       1  UNL1        0.0278
     28 H           3.5060    6.2020   29.4000 H       1  UNL1        0.0427
     29 H           4.5540    7.1330   27.5980 H       1  UNL1        0.0427
     30 H           2.7620    8.6190   25.6780 H       1  UNL1        0.0281
     31 H           4.3750    7.9520   24.1330 H       1  UNL1        0.0328
     32 H           4.4220   16.1730   23.3910 H       1  UNL1        0.0235
     33 H           7.4280    8.3440   24.0750 H       1  UNL1        0.0278
     34 H           6.9960   15.5320   24.9810 H       1  UNL1        0.0235
     35 C           7.6760    9.4090   24.0930 C.3     1  UNL1       -0.0373
     36 C           6.4540   10.2670   24.1240 C.ar    1  UNL1       -0.0186
     37 C           5.1720    9.9010   24.5540 C.ar    1  UNL1        0.0277
     38 N           4.3390   11.0220   24.3820 N.ar    1  UNL1       -0.3161
     39 C           5.0930   12.0480   23.8460 C.ar    1  UNL1        0.0353
     40 C           6.3960   11.6210   23.6970 C.ar    1  UNL1        0.0416
     41 C           7.4340   12.5140   23.1890 C.2     1  UNL1        0.1657
     42 O           8.6070   12.1660   23.0670 O.2     1  UNL1       -0.2920
     43 C           6.9750   13.8970   22.7350 C.3     1  UNL1        0.0160
     44 C           5.7640   14.4490   23.5310 C.3     1  UNL1       -0.0225
     45 C           4.5930   13.4260   23.5370 C.3     1  UNL1       -0.0057
     46 C           6.1880   14.7910   24.9750 C.3     1  UNL1       -0.0591
     47 C           5.2800   15.7480   22.8580 C.3     1  UNL1       -0.0591
     48 C           2.9540   11.1430   24.6590 C.ar    1  UNL1        0.0484
     49 C           2.0480   11.2940   23.6090 C.ar    1  UNL1       -0.0370
     50 C           0.6790   11.3090   23.8880 C.ar    1  UNL1       -0.0459
     51 C           0.2150   11.1100   25.2030 C.ar    1  UNL1        0.0574
     52 C           1.1370   10.9870   26.2670 C.ar    1  UNL1        0.0414
     53 C           2.5020   11.1030   25.9810 C.ar    1  UNL1       -0.0162
     54 N           0.7650   10.5150   27.5500 N.pl3   1  UNL1       -0.3417
     55 C           0.7650    9.0360   27.6620 C.3     1  UNL1        0.0247
     56 C           1.9940    8.4690   28.4370 C.3     1  UNL1        0.0259
     57 C           1.6080    8.1120   29.8830 C.3     1  UNL1       -0.0347
     58 C           1.4510    6.6040   29.8710 C.3     1  UNL1       -0.0387
     59 C           2.5300    6.1750   28.8990 C.3     1  UNL1       -0.0007
     60 N           2.4390    7.1780   27.8360 N.3     1  UNL1       -0.2979
     61 C           3.6470    7.1950   26.9840 C.3     1  UNL1       -0.0004
     62 C           3.7420    8.4550   26.1290 C.3     1  UNL1       -0.0348
     63 C           4.7580    8.4980   25.0050 C.3     1  UNL1       -0.0105
     64 C          -1.2470   11.0210   25.4790 C.2     1  UNL1        0.2433
     65 O          -1.7260   11.3470   26.5590 O.2     1  UNL1       -0.2704
     66 N          -2.0480   10.5250   24.4870 N.am    1  UNL1       -0.3253
@<TRIPOS>BOND
     1     3    43    1
     2     6    47    1
     3    22    45    1
     4     7    49    1
     5    43    21    1
     6    43    41    1
     7    43    44    1
     8    24    47    1
     9    47    32    1
    10    47    44    1
    11     8    50    1
    12    42    41    2
    13    41    40    1
    14     2    35    1
    15    44    45    1
    16    44    46    1
    17    45    39    1
    18    45     4    1
    19    49    50   ar
    20    49    48   ar
    21    19    66    1
    22    40    39   ar
    23    40    36   ar
    24    39    38   ar
    25    50    51   ar
    26    33    35    1
    27    35    36    1
    28    35    20    1
    29    36    37   ar
    30    31    63    1
    31    38    37   ar
    32    38    48    1
    33    66     1    1
    34    66    64   am
    35    37    63    1
    36    48    53   ar
    37    46    34    1
    38    46     5    1
    39    46    23    1
    40    63    18    1
    41    63    62    1
    42    51    64    1
    43    51    52   ar
    44    64    65    2
    45    30    62    1
    46    53    52   ar
    47    53     9    1
    48    62    17    1
    49    62    61    1
    50    52    54    1
    51    16    61    1
    52    11    55    1
    53    61    29    1
    54    61    60    1
    55    54    55    1
    56    54    10    1
    57    55    25    1
    58    55    56    1
    59    60    56    1
    60    60    59    1
    61    56    12    1
    62    56    57    1
    63    15    59    1
    64    59    28    1
    65    59    58    1
    66    14    58    1
    67    58    57    1
    68    58    27    1
    69    57    13    1
    70    57    26    1
