@<TRIPOS>MOLECULE
133.25404
 66 70 0 0 0
SMALL
GASTEIGER

@<TRIPOS>ATOM
      1 H           2.0780    1.7160   17.1320 H       1  UNL1        0.1453
      2 H           0.4580   11.3420   22.8140 H       1  UNL1        0.0278
      3 H          -3.2040   10.8530   19.5490 H       1  UNL1        0.0350
      4 H          -2.7950    6.9990   19.7300 H       1  UNL1        0.0333
      5 H          -3.8930    8.1900   22.2550 H       1  UNL1        0.0235
      6 H          -4.4260    9.2700   18.0770 H       1  UNL1        0.0235
      7 H          -0.4100    6.9000   18.3280 H       1  UNL1        0.0638
      8 H           0.2040    4.7110   17.4180 H       1  UNL1        0.0626
      9 H           0.1490    5.3760   22.2950 H       1  UNL1        0.0657
     10 H           1.2640    2.0900   21.2030 H       1  UNL1        0.1461
     11 H           1.3680    2.1960   23.4980 H       1  UNL1        0.0476
     12 H           3.1000    3.5940   24.3510 H       1  UNL1        0.0478
     13 H           3.5050    1.8860   22.0890 H       1  UNL1        0.0281
     14 H           4.0470    3.6980   20.6190 H       1  UNL1        0.0278
     15 H           4.7450    5.8380   21.5400 H       1  UNL1        0.0427
     16 H           3.9580    6.7970   23.7820 H       1  UNL1        0.0427
     17 H           1.8300    7.7270   24.4720 H       1  UNL1        0.0281
     18 H           2.4760    8.5700   22.3720 H       1  UNL1        0.0328
     19 H           1.9480    3.4440   17.0310 H       1  UNL1        0.1453
     20 H          -0.4940   10.5320   24.0780 H       1  UNL1        0.0278
     21 H          -4.4230   10.8550   20.8330 H       1  UNL1        0.0350
     22 H          -2.2620    8.3710   18.7470 H       1  UNL1        0.0333
     23 H          -4.8090    7.1560   21.1560 H       1  UNL1        0.0235
     24 H          -5.7790    9.3360   19.2140 H       1  UNL1        0.0235
     25 H           0.7360    3.8130   23.5610 H       1  UNL1        0.0476
     26 H           4.6760    2.4260   23.2960 H       1  UNL1        0.0281
     27 H           5.6360    3.3480   21.3310 H       1  UNL1        0.0278
     28 H           5.3420    5.0580   23.0290 H       1  UNL1        0.0427
     29 H           3.1250    5.6940   24.8480 H       1  UNL1        0.0427
     30 H           0.9500    6.3680   23.8470 H       1  UNL1        0.0281
     31 H           2.2130    7.0900   21.5150 H       1  UNL1        0.0328
     32 H          -5.1120    7.7710   18.7210 H       1  UNL1        0.0235
     33 H           1.1860   10.0660   23.7980 H       1  UNL1        0.0278
     34 H          -5.4590    8.7260   21.6420 H       1  UNL1        0.0235
     35 C           0.2640   10.3820   23.3020 C.3     1  UNL1       -0.0373
     36 C          -0.2070    9.3790   22.3060 C.ar    1  UNL1       -0.0186
     37 C           0.4230    8.1970   21.9290 C.ar    1  UNL1        0.0277
     38 N          -0.3730    7.5590   20.9700 N.ar    1  UNL1       -0.3161
     39 C          -1.4530    8.3760   20.6980 C.ar    1  UNL1        0.0353
     40 C          -1.3840    9.4900   21.5160 C.ar    1  UNL1        0.0416
     41 C          -2.4170   10.5210   21.4900 C.2     1  UNL1        0.1657
     42 O          -2.3700   11.5220   22.2020 O.2     1  UNL1       -0.2920
     43 C          -3.5290   10.3390   20.4620 C.3     1  UNL1        0.0160
     44 C          -3.8600    8.8550   20.1520 C.3     1  UNL1       -0.0225
     45 C          -2.5760    8.0730   19.7550 C.3     1  UNL1       -0.0057
     46 C          -4.5390    8.1960   21.3720 C.3     1  UNL1       -0.0591
     47 C          -4.8510    8.8050   18.9740 C.3     1  UNL1       -0.0591
     48 C          -0.1090    6.2910   20.3860 C.ar    1  UNL1        0.0484
     49 C          -0.1450    6.0970   19.0100 C.ar    1  UNL1       -0.0370
     50 C           0.2410    4.8570   18.4940 C.ar    1  UNL1       -0.0459
     51 C           0.6780    3.8200   19.3480 C.ar    1  UNL1        0.0574
     52 C           0.6670    3.9930   20.7500 C.ar    1  UNL1        0.0414
     53 C           0.2380    5.2320   21.2290 C.ar    1  UNL1       -0.0162
     54 N           1.1010    3.0100   21.6220 N.pl3   1  UNL1       -0.3417
     55 C           1.4560    3.1840   23.0280 C.3     1  UNL1        0.0247
     56 C           2.9090    3.6810   23.2730 C.3     1  UNL1        0.0259
     57 C           3.9340    2.7730   22.5650 C.3     1  UNL1       -0.0347
     58 C           4.6160    3.6740   21.5560 C.3     1  UNL1       -0.0387
     59 C           4.5740    5.0180   22.2450 C.3     1  UNL1       -0.0007
     60 N           3.2200    5.0620   22.8110 N.3     1  UNL1       -0.2979
     61 C           3.1000    6.1120   23.8350 C.3     1  UNL1       -0.0004
     62 C           1.8400    6.9760   23.6710 C.3     1  UNL1       -0.0348
     63 C           1.8000    7.7050   22.3200 C.3     1  UNL1       -0.0105
     64 C           1.1570    2.5330   18.7570 C.2     1  UNL1        0.2433
     65 O           1.0790    1.4630   19.3510 O.2     1  UNL1       -0.2704
     66 N           1.7390    2.5870   17.5190 N.am    1  UNL1       -0.3253
@<TRIPOS>BOND
     1    19    66    1
     2     1    66    1
     3     8    50    1
     4    66    64   am
     5     6    47    1
     6     7    49    1
     7    50    49   ar
     8    50    51   ar
     9    32    47    1
    10    22    45    1
    11    64    51    1
    12    64    65    2
    13    47    24    1
    14    47    44    1
    15    49    48   ar
    16    51    52   ar
    17     3    43    1
    18     4    45    1
    19    45    44    1
    20    45    39    1
    21    44    43    1
    22    44    46    1
    23    48    38    1
    24    48    53   ar
    25    43    21    1
    26    43    41    1
    27    14    58    1
    28    39    38   ar
    29    39    40   ar
    30    52    53   ar
    31    52    54    1
    32    38    37   ar
    33    23    46    1
    34    10    54    1
    35    53     9    1
    36    27    58    1
    37    46    34    1
    38    46     5    1
    39    41    40    1
    40    41    42    2
    41    31    63    1
    42    40    36   ar
    43    15    59    1
    44    58    59    1
    45    58    57    1
    46    54    55    1
    47    37    36   ar
    48    37    63    1
    49    13    57    1
    50    59    60    1
    51    59    28    1
    52    36    35    1
    53    63    18    1
    54    63    62    1
    55    57    56    1
    56    57    26    1
    57    60    56    1
    58    60    61    1
    59     2    35    1
    60    55    56    1
    61    55    11    1
    62    55    25    1
    63    56    12    1
    64    35    33    1
    65    35    20    1
    66    62    61    1
    67    62    30    1
    68    62    17    1
    69    16    61    1
    70    61    29    1
