@<TRIPOS>MOLECULE
142.84331
 66 70 0 0 0
SMALL
GASTEIGER

@<TRIPOS>ATOM
      1 H          -3.8790   11.0210   24.5540 H       1  UNL1        0.1453
      2 H           7.3600   11.9210   26.0100 H       1  UNL1        0.0278
      3 H           6.5690    7.2550   24.6620 H       1  UNL1        0.0350
      4 H           3.1410    8.3030   23.1490 H       1  UNL1        0.0333
      5 H           5.4880    9.2820   21.5630 H       1  UNL1        0.0235
      6 H           4.8760    5.6330   23.8470 H       1  UNL1        0.0235
      7 H           1.7650   11.9600   23.0260 H       1  UNL1        0.0638
      8 H          -0.6610   12.0010   23.4290 H       1  UNL1        0.0626
      9 H           2.2580    9.1650   26.2580 H       1  UNL1        0.0657
     10 H          -1.1280    9.2020   27.2670 H       1  UNL1        0.1461
     11 H          -0.4220   10.0140   29.2120 H       1  UNL1        0.0476
     12 H           1.6600   10.8580   29.8530 H       1  UNL1        0.0478
     13 H           1.7480    8.1310   28.5690 H       1  UNL1        0.0281
     14 H           3.9450    8.3440   28.0680 H       1  UNL1        0.0278
     15 H           4.8580   10.5110   27.9820 H       1  UNL1        0.0427
     16 H           2.7420   12.7970   29.0110 H       1  UNL1        0.0427
     17 H           4.7900   12.7610   27.4800 H       1  UNL1        0.0281
     18 H           2.5880   13.0790   25.3580 H       1  UNL1        0.0328
     19 H          -2.5880   11.0280   23.3960 H       1  UNL1        0.1453
     20 H           7.4530   12.4180   24.3060 H       1  UNL1        0.0278
     21 H           7.3890    7.4440   23.1050 H       1  UNL1        0.0350
     22 H           3.8080    7.6700   24.6580 H       1  UNL1        0.0333
     23 H           4.3590    8.0410   21.0120 H       1  UNL1        0.0235
     24 H           5.7320    5.6040   22.2990 H       1  UNL1        0.0235
     25 H          -0.0950   11.3520   28.1390 H       1  UNL1        0.0476
     26 H           1.9940    8.6360   30.2430 H       1  UNL1        0.0281
     27 H           4.2760    8.5780   29.7910 H       1  UNL1        0.0278
     28 H           4.2430   10.9390   29.5970 H       1  UNL1        0.0427
     29 H           1.7240   12.6800   27.5860 H       1  UNL1        0.0427
     30 H           3.7250   14.1400   27.4010 H       1  UNL1        0.0281
     31 H           4.1400   13.8350   25.1820 H       1  UNL1        0.0328
     32 H           3.9900    5.9190   22.3430 H       1  UNL1        0.0235
     33 H           6.4730   13.3440   25.4460 H       1  UNL1        0.0278
     34 H           6.0990    7.7290   20.9850 H       1  UNL1        0.0235
     35 C           6.7890   12.3330   25.1720 C.3     1  UNL1       -0.0373
     36 C           5.6290   11.4540   24.8550 C.ar    1  UNL1       -0.0186
     37 C           4.2750   11.7410   25.0220 C.ar    1  UNL1        0.0277
     38 N           3.5460   10.6500   24.5600 N.ar    1  UNL1       -0.3161
     39 C           4.4240    9.6420   24.2340 C.ar    1  UNL1        0.0353
     40 C           5.7130   10.1140   24.3820 C.ar    1  UNL1        0.0416
     41 C           6.8660    9.2730   24.0820 C.2     1  UNL1        0.1657
     42 O           8.0230    9.6750   24.1830 O.2     1  UNL1       -0.2920
     43 C           6.5640    7.8200   23.7210 C.3     1  UNL1        0.0160
     44 C           5.2120    7.6180   22.9830 C.3     1  UNL1       -0.0225
     45 C           4.0430    8.2730   23.7720 C.3     1  UNL1       -0.0057
     46 C           5.2950    8.2040   21.5580 C.3     1  UNL1       -0.0591
     47 C           4.9370    6.1070   22.8610 C.3     1  UNL1       -0.0591
     48 C           2.1420   10.5290   24.6010 C.ar    1  UNL1        0.0484
     49 C           1.3340   11.3360   23.8050 C.ar    1  UNL1       -0.0370
     50 C          -0.0410   11.3560   24.0450 C.ar    1  UNL1       -0.0459
     51 C          -0.5890   10.6430   25.1310 C.ar    1  UNL1        0.0574
     52 C           0.2590    9.8860   25.9730 C.ar    1  UNL1        0.0414
     53 C           1.6030    9.7560   25.6240 C.ar    1  UNL1       -0.0162
     54 N          -0.1270    9.4270   27.2470 N.pl3   1  UNL1       -0.3417
     55 C           0.2140   10.3260   28.3730 C.3     1  UNL1        0.0247
     56 C           1.6790   10.3140   28.8960 C.3     1  UNL1        0.0259
     57 C           2.1990    8.9040   29.2000 C.3     1  UNL1       -0.0347
     58 C           3.6990    8.9600   28.9420 C.3     1  UNL1       -0.0387
     59 C           4.0050   10.4200   28.6600 C.3     1  UNL1       -0.0007
     60 N           2.7590   10.9180   28.0710 N.3     1  UNL1       -0.2979
     61 C           2.6950   12.3790   27.9960 C.3     1  UNL1       -0.0004
     62 C           3.7910   13.0710   27.1560 C.3     1  UNL1       -0.0348
     63 C           3.6400   12.9650   25.6300 C.3     1  UNL1       -0.0105
     64 C          -2.0540   10.7290   25.4150 C.2     1  UNL1        0.2433
     65 O          -2.5300   10.5390   26.5290 O.2     1  UNL1       -0.2704
     66 N          -2.8870   10.9850   24.3580 N.am    1  UNL1       -0.3253
@<TRIPOS>BOND
     1    34    46    1
     2    23    46    1
     3    46     5    1
     4    46    44    1
     5    24    47    1
     6    32    47    1
     7    47    44    1
     8    47     6    1
     9    44    43    1
    10    44    45    1
    11     7    49    1
    12    21    43    1
    13     4    45    1
    14    19    66    1
    15     8    50    1
    16    43    41    1
    17    43     3    1
    18    45    39    1
    19    45    22    1
    20    49    50   ar
    21    49    48   ar
    22    50    51   ar
    23    41    42    2
    24    41    40    1
    25    39    40   ar
    26    39    38   ar
    27    20    35    1
    28    66     1    1
    29    66    64   am
    30    40    36   ar
    31    38    48    1
    32    38    37   ar
    33    48    53   ar
    34    36    37   ar
    35    36    35    1
    36    37    63    1
    37    51    64    1
    38    51    52   ar
    39    35    33    1
    40    35     2    1
    41    31    63    1
    42    18    63    1
    43    64    65    2
    44    53    52   ar
    45    53     9    1
    46    63    62    1
    47    52    54    1
    48    62    30    1
    49    62    17    1
    50    62    61    1
    51    54    10    1
    52    54    55    1
    53    29    61    1
    54    15    59    1
    55    61    60    1
    56    61    16    1
    57    14    58    1
    58    60    59    1
    59    60    56    1
    60    25    55    1
    61    55    56    1
    62    55    11    1
    63    13    57    1
    64    59    58    1
    65    59    28    1
    66    56    57    1
    67    56    12    1
    68    58    57    1
    69    58    27    1
    70    57    26    1
