@<TRIPOS>MOLECULE
146.61405
 66 70 0 0 0
SMALL
GASTEIGER

@<TRIPOS>ATOM
      1 H          -3.4700   11.8480   23.4950 H       1  UNL1        0.1453
      2 H           7.2110    9.0430   25.9290 H       1  UNL1        0.0278
      3 H           7.3970    7.9900   20.5640 H       1  UNL1        0.0350
      4 H           4.0470    9.9730   20.7170 H       1  UNL1        0.0333
      5 H           5.0420    9.0250   18.7020 H       1  UNL1        0.0235
      6 H           5.2760    6.6910   22.3630 H       1  UNL1        0.0235
      7 H           2.0940   10.9900   21.7520 H       1  UNL1        0.0638
      8 H          -0.3410   11.2260   21.9190 H       1  UNL1        0.0626
      9 H           2.0760    8.7660   25.3790 H       1  UNL1        0.0657
     10 H          -1.3710    9.2920   26.1830 H       1  UNL1        0.1461
     11 H          -0.4410   10.1390   28.0620 H       1  UNL1        0.0476
     12 H           1.5500    9.1790   29.0750 H       1  UNL1        0.0478
     13 H          -0.8080    7.7430   28.4950 H       1  UNL1        0.0281
     14 H           0.1900    6.4450   26.7210 H       1  UNL1        0.0278
     15 H           2.5860    6.0990   26.6880 H       1  UNL1        0.0427
     16 H           4.3130    7.9780   26.9580 H       1  UNL1        0.0427
     17 H           3.4460   10.6000   28.2220 H       1  UNL1        0.0281
     18 H           2.8170   11.0430   25.9920 H       1  UNL1        0.0328
     19 H          -1.9420   12.3120   22.8200 H       1  UNL1        0.1453
     20 H           7.8120   10.3930   24.9400 H       1  UNL1        0.0278
     21 H           6.7760    9.6370   20.3720 H       1  UNL1        0.0350
     22 H           3.1740    8.5550   21.3150 H       1  UNL1        0.0333
     23 H           3.9670    7.6440   18.9670 H       1  UNL1        0.0235
     24 H           5.8490    6.0390   20.8250 H       1  UNL1        0.0235
     25 H           0.9620   10.6510   27.1720 H       1  UNL1        0.0476
     26 H           0.4670    7.2760   29.6310 H       1  UNL1        0.0281
     27 H           0.4590    5.4110   28.1400 H       1  UNL1        0.0278
     28 H           2.6910    6.2700   28.4580 H       1  UNL1        0.0427
     29 H           3.9530    8.2520   28.6510 H       1  UNL1        0.0427
     30 H           5.0590   10.1220   27.7840 H       1  UNL1        0.0281
     31 H           4.3740   11.7090   26.2270 H       1  UNL1        0.0328
     32 H           4.1190    6.2830   21.0940 H       1  UNL1        0.0235
     33 H           6.7370   10.7160   26.2880 H       1  UNL1        0.0278
     34 H           5.6970    7.3810   18.6930 H       1  UNL1        0.0235
     35 C           6.9440   10.0060   25.4820 C.3     1  UNL1       -0.0373
     36 C           5.7710    9.8440   24.5770 C.ar    1  UNL1       -0.0186
     37 C           4.4330   10.0960   24.8780 C.ar    1  UNL1        0.0277
     38 N           3.6740    9.8410   23.7180 N.ar    1  UNL1       -0.3161
     39 C           4.5370    9.4710   22.7080 C.ar    1  UNL1        0.0353
     40 C           5.8230    9.4320   23.2150 C.ar    1  UNL1        0.0416
     41 C           6.9520    9.0080   22.3900 C.2     1  UNL1        0.1657
     42 O           8.1030    8.9560   22.8170 O.2     1  UNL1       -0.2920
     43 C           6.6440    8.7000   20.9280 C.3     1  UNL1        0.0160
     44 C           5.2200    8.1320   20.6940 C.3     1  UNL1       -0.0225
     45 C           4.1450    9.0630   21.3220 C.3     1  UNL1       -0.0057
     46 C           4.9670    8.0400   19.1770 C.3     1  UNL1       -0.0591
     47 C           5.1110    6.7090   21.2810 C.3     1  UNL1       -0.0591
     48 C           2.2570    9.9260   23.6300 C.ar    1  UNL1        0.0484
     49 C           1.5770   10.5680   22.6080 C.ar    1  UNL1       -0.0370
     50 C           0.1880   10.7360   22.7310 C.ar    1  UNL1       -0.0459
     51 C          -0.5040   10.3140   23.8940 C.ar    1  UNL1        0.0574
     52 C           0.1900    9.6320   24.9090 C.ar    1  UNL1        0.0414
     53 C           1.5390    9.3880   24.6870 C.ar    1  UNL1       -0.0162
     54 N          -0.3480    9.3130   26.1600 N.pl3   1  UNL1       -0.3417
     55 C           0.3400    9.7740   27.3820 C.3     1  UNL1        0.0247
     56 C           1.1710    8.7030   28.1610 C.3     1  UNL1        0.0259
     57 C           0.2630    7.5350   28.5840 C.3     1  UNL1       -0.0347
     58 C           0.6880    6.3840   27.6960 C.3     1  UNL1       -0.0387
     59 C           2.1750    6.6230   27.5560 C.3     1  UNL1       -0.0007
     60 N           2.2820    8.0800   27.4120 N.3     1  UNL1       -0.2979
     61 C           3.6530    8.5380   27.6340 C.3     1  UNL1       -0.0004
     62 C           4.0100   10.0250   27.4750 C.3     1  UNL1       -0.0348
     63 C           3.8570   10.7430   26.1260 C.3     1  UNL1       -0.0105
     64 C          -1.9610   10.6020   24.0580 C.2     1  UNL1        0.2433
     65 O          -2.6820    9.9490   24.8060 O.2     1  UNL1       -0.2704
     66 N          -2.4850   11.6610   23.3660 N.am    1  UNL1       -0.3253
@<TRIPOS>BOND
     1    34    46    1
     2     5    46    1
     3    23    46    1
     4    46    44    1
     5    21    43    1
     6     3    43    1
     7    44    43    1
     8    44    47    1
     9    44    45    1
    10     4    45    1
    11    24    47    1
    12    43    41    1
    13    32    47    1
    14    47     6    1
    15    22    45    1
    16    45    39    1
    17     7    49    1
    18     8    50    1
    19    41    42    2
    20    41    40    1
    21    49    50   ar
    22    49    48   ar
    23    39    40   ar
    24    39    38   ar
    25    50    51   ar
    26    19    66    1
    27    40    36   ar
    28    66     1    1
    29    66    64   am
    30    48    38    1
    31    48    53   ar
    32    38    37   ar
    33    51    64    1
    34    51    52   ar
    35    64    65    2
    36    36    37   ar
    37    36    35    1
    38    53    52   ar
    39    53     9    1
    40    37    63    1
    41    52    54    1
    42    20    35    1
    43    35     2    1
    44    35    33    1
    45    18    63    1
    46    63    31    1
    47    63    62    1
    48    54    10    1
    49    54    55    1
    50    15    59    1
    51    14    58    1
    52    16    61    1
    53    25    55    1
    54    55    11    1
    55    55    56    1
    56    60    59    1
    57    60    61    1
    58    60    56    1
    59    62    61    1
    60    62    30    1
    61    62    17    1
    62    59    58    1
    63    59    28    1
    64    61    29    1
    65    58    27    1
    66    58    57    1
    67    56    57    1
    68    56    12    1
    69    13    57    1
    70    57    26    1
