@<TRIPOS>MOLECULE
143.72671
 66 70 0 0 0
SMALL
GASTEIGER

@<TRIPOS>ATOM
      1 H          -3.0470   10.2580   24.0540 H       1  UNL1        0.1453
      2 H           7.8020    9.5070   22.4270 H       1  UNL1        0.0278
      3 H           6.7750   14.3740   21.8380 H       1  UNL1        0.0350
      4 H           3.8300   13.9700   24.3390 H       1  UNL1        0.0333
      5 H           6.5260   13.7750   25.6420 H       1  UNL1        0.0235
      6 H           5.1030   16.1520   22.2910 H       1  UNL1        0.0235
      7 H           2.2210   12.3100   22.5180 H       1  UNL1        0.0638
      8 H          -0.1640   12.0290   23.0210 H       1  UNL1        0.0626
      9 H           3.2160   10.3890   26.2170 H       1  UNL1        0.0657
     10 H          -0.2750    9.4970   26.9370 H       1  UNL1        0.1461
     11 H           0.7380    8.7000   28.6880 H       1  UNL1        0.0476
     12 H           3.5890    9.1470   27.7630 H       1  UNL1        0.0478
     13 H           2.3240    8.1080   30.1830 H       1  UNL1        0.0281
     14 H           2.5980    5.8880   29.5580 H       1  UNL1        0.0278
     15 H           3.7470    5.3150   27.5240 H       1  UNL1        0.0427
     16 H           2.2800    7.9600   25.3480 H       1  UNL1        0.0427
     17 H           5.2550    7.3190   25.4110 H       1  UNL1        0.0281
     18 H           4.9650    8.0390   23.2910 H       1  UNL1        0.0328
     19 H          -1.7060   10.4650   22.9730 H       1  UNL1        0.1453
     20 H           8.3300    9.9270   24.0730 H       1  UNL1        0.0278
     21 H           7.8900   14.8630   23.1230 H       1  UNL1        0.0350
     22 H           4.1360   13.9330   22.5980 H       1  UNL1        0.0333
     23 H           5.3920   15.1060   25.8850 H       1  UNL1        0.0235
     24 H           6.2250   16.8310   23.4770 H       1  UNL1        0.0235
     25 H           1.6290   10.2050   28.6210 H       1  UNL1        0.0476
     26 H           4.0050    8.5250   29.8280 H       1  UNL1        0.0281
     27 H           4.2910    6.2010   29.9850 H       1  UNL1        0.0278
     28 H           4.8690    6.6890   27.6950 H       1  UNL1        0.0427
     29 H           3.0810    6.4380   25.2930 H       1  UNL1        0.0427
     30 H           4.7780    8.8380   26.1110 H       1  UNL1        0.0281
     31 H           3.3880    8.7030   23.5790 H       1  UNL1        0.0328
     32 H           4.5510   16.4860   23.9380 H       1  UNL1        0.0235
     33 H           7.2700    8.5410   23.8150 H       1  UNL1        0.0278
     34 H           7.0610   15.4420   25.4100 H       1  UNL1        0.0235
     35 C           7.4900    9.5580   23.4750 C.3     1  UNL1       -0.0373
     36 C           6.3100   10.4560   23.6200 C.ar    1  UNL1       -0.0186
     37 C           4.9970   10.0870   23.9000 C.ar    1  UNL1        0.0277
     38 N           4.2280   11.2510   23.9820 N.ar    1  UNL1       -0.3161
     39 C           5.0220   12.3230   23.6350 C.ar    1  UNL1        0.0353
     40 C           6.3110   11.8670   23.4320 C.ar    1  UNL1        0.0416
     41 C           7.3970   12.7840   23.0960 C.2     1  UNL1        0.1657
     42 O           8.5490   12.4010   22.9060 O.2     1  UNL1       -0.2920
     43 C           7.0100   14.2470   22.9030 C.3     1  UNL1        0.0160
     44 C           5.8090   14.7030   23.7730 C.3     1  UNL1       -0.0225
     45 C           4.5910   13.7540   23.5800 C.3     1  UNL1       -0.0057
     46 C           6.2210   14.7550   25.2600 C.3     1  UNL1       -0.0591
     47 C           5.3990   16.1240   23.3450 C.3     1  UNL1       -0.0591
     48 C           2.8550   11.3030   24.3280 C.ar    1  UNL1        0.0484
     49 C           1.9210   11.8230   23.4410 C.ar    1  UNL1       -0.0370
     50 C           0.5690   11.6240   23.7120 C.ar    1  UNL1       -0.0459
     51 C           0.1630   10.8760   24.8400 C.ar    1  UNL1        0.0574
     52 C           1.1110   10.4080   25.7870 C.ar    1  UNL1        0.0414
     53 C           2.4500   10.6930   25.5210 C.ar    1  UNL1       -0.0162
     54 N           0.7430    9.5800   26.8360 N.pl3   1  UNL1       -0.3417
     55 C           1.4520    9.2680   28.0770 C.3     1  UNL1        0.0247
     56 C           2.7810    8.4610   28.0280 C.3     1  UNL1        0.0259
     57 C           3.1320    7.9740   29.4560 C.3     1  UNL1       -0.0347
     58 C           3.4770    6.5000   29.3180 C.3     1  UNL1       -0.0387
     59 C           3.8380    6.3530   27.8570 C.3     1  UNL1       -0.0007
     60 N           2.8590    7.2280   27.2140 N.3     1  UNL1       -0.2979
     61 C           3.1240    7.4210   25.7820 C.3     1  UNL1       -0.0004
     62 C           4.4650    8.0820   25.3860 C.3     1  UNL1       -0.0348
     63 C           4.4090    8.6910   23.9770 C.3     1  UNL1       -0.0105
     64 C          -1.2920   10.5930   25.0350 C.2     1  UNL1        0.2433
     65 O          -1.7850   10.4330   26.1450 O.2     1  UNL1       -0.2704
     66 N          -2.0690   10.4720   23.9140 N.am    1  UNL1       -0.3253
@<TRIPOS>BOND
     1     3    43    1
     2     6    47    1
     3     2    35    1
     4     7    49    1
     5    22    45    1
     6    43    41    1
     7    43    21    1
     8    43    44    1
     9    42    41    2
    10    19    66    1
    11     8    50    1
    12    41    40    1
    13    18    63    1
    14    47    24    1
    15    47    44    1
    16    47    32    1
    17    40    36   ar
    18    40    39   ar
    19    49    50   ar
    20    49    48   ar
    21    35    36    1
    22    35    33    1
    23    35    20    1
    24    31    63    1
    25    45    39    1
    26    45    44    1
    27    45     4    1
    28    36    37   ar
    29    39    38   ar
    30    50    51   ar
    31    44    46    1
    32    37    63    1
    33    37    38   ar
    34    66     1    1
    35    66    64   am
    36    63    62    1
    37    38    48    1
    38    48    53   ar
    39    51    64    1
    40    51    52   ar
    41    64    65    2
    42    46    34    1
    43    46     5    1
    44    46    23    1
    45    29    61    1
    46    16    61    1
    47    62    17    1
    48    62    61    1
    49    62    30    1
    50    53    52   ar
    51    53     9    1
    52    61    60    1
    53    52    54    1
    54    54    10    1
    55    54    55    1
    56    60    59    1
    57    60    56    1
    58    15    59    1
    59    28    59    1
    60    12    56    1
    61    59    58    1
    62    56    55    1
    63    56    57    1
    64    55    25    1
    65    55    11    1
    66    58    57    1
    67    58    14    1
    68    58    27    1
    69    57    26    1
    70    57    13    1
