@<TRIPOS>MOLECULE
143.89361
 66 70 0 0 0
SMALL
GASTEIGER

@<TRIPOS>ATOM
      1 H          -3.4790   11.4350   24.8590 H       1  UNL1        0.1453
      2 H           7.3660    8.8430   22.7880 H       1  UNL1        0.0278
      3 H           6.8900   13.9250   22.3650 H       1  UNL1        0.0350
      4 H           3.6360   13.6500   24.4660 H       1  UNL1        0.0333
      5 H           6.1140   13.1870   26.0720 H       1  UNL1        0.0235
      6 H           5.3080   15.8100   22.6990 H       1  UNL1        0.0235
      7 H           1.9150   12.1990   22.5930 H       1  UNL1        0.0638
      8 H          -0.4160   12.4300   23.3480 H       1  UNL1        0.0626
      9 H           2.8820   10.2150   26.2620 H       1  UNL1        0.0657
     10 H          -0.4760   10.2520   27.5710 H       1  UNL1        0.1461
     11 H           0.6000    8.0720   26.2600 H       1  UNL1        0.0476
     12 H           2.7030    9.0760   27.9790 H       1  UNL1        0.0478
     13 H           0.8640    7.5600   29.6670 H       1  UNL1        0.0281
     14 H           1.9070    5.5180   29.2020 H       1  UNL1        0.0278
     15 H           3.9770    5.4440   27.9590 H       1  UNL1        0.0427
     16 H           4.5570    6.8320   25.9930 H       1  UNL1        0.0427
     17 H           2.1220    8.2710   24.8780 H       1  UNL1        0.0281
     18 H           4.6610    7.6310   23.3890 H       1  UNL1        0.0328
     19 H          -2.2880   11.3210   23.6020 H       1  UNL1        0.1453
     20 H           7.8900    9.3600   24.4070 H       1  UNL1        0.0278
     21 H           7.8650   14.2730   23.8000 H       1  UNL1        0.0350
     22 H           4.1420   13.6670   22.7730 H       1  UNL1        0.0333
     23 H           5.0620   14.5940   26.2420 H       1  UNL1        0.0235
     24 H           6.3160   16.3480   24.0490 H       1  UNL1        0.0235
     25 H          -0.1050    8.0540   27.8350 H       1  UNL1        0.0476
     26 H           2.3890    8.3680   30.0380 H       1  UNL1        0.0281
     27 H           3.0910    6.1480   30.3630 H       1  UNL1        0.0278
     28 H           4.4830    7.0370   28.5810 H       1  UNL1        0.0427
     29 H           4.2720    8.4940   26.4550 H       1  UNL1        0.0427
     30 H           2.7550    6.7250   24.4570 H       1  UNL1        0.0281
     31 H           3.2490    8.4530   22.7910 H       1  UNL1        0.0328
     32 H           4.5760   16.1160   24.2810 H       1  UNL1        0.0235
     33 H           6.7420    8.0390   24.2440 H       1  UNL1        0.0278
     34 H           6.7980   14.8130   25.9950 H       1  UNL1        0.0235
     35 C           7.0380    9.0040   23.8200 C.3     1  UNL1       -0.0373
     36 C           5.9150    9.9850   23.8590 C.ar    1  UNL1       -0.0186
     37 C           4.5490    9.7030   23.9070 C.ar    1  UNL1        0.0277
     38 N           3.8680   10.9210   23.9880 N.ar    1  UNL1       -0.3161
     39 C           4.7780   11.9440   23.8110 C.ar    1  UNL1        0.0353
     40 C           6.0460   11.3980   23.7510 C.ar    1  UNL1        0.0416
     41 C           7.2300   12.2420   23.6080 C.2     1  UNL1        0.1657
     42 O           8.3670   11.7810   23.5450 O.2     1  UNL1       -0.2920
     43 C           6.9780   13.7370   23.4420 C.3     1  UNL1        0.0160
     44 C           5.7120   14.2480   24.1800 C.3     1  UNL1       -0.0225
     45 C           4.4630   13.4070   23.7900 C.3     1  UNL1       -0.0057
     46 C           5.9350   14.2030   25.7070 C.3     1  UNL1       -0.0591
     47 C           5.4640   15.7140   23.7800 C.3     1  UNL1       -0.0591
     48 C           2.5180   11.1050   24.3580 C.ar    1  UNL1        0.0484
     49 C           1.6140   11.7810   23.5490 C.ar    1  UNL1       -0.0370
     50 C           0.2860   11.8880   23.9750 C.ar    1  UNL1       -0.0459
     51 C          -0.1380   11.3010   25.1900 C.ar    1  UNL1        0.0574
     52 C           0.7960   10.6580   26.0310 C.ar    1  UNL1        0.0414
     53 C           2.1250   10.6250   25.6070 C.ar    1  UNL1       -0.0162
     54 N           0.4320    9.9600   27.1910 N.pl3   1  UNL1       -0.3417
     55 C           0.7050    8.5140   27.2560 C.3     1  UNL1        0.0247
     56 C           2.0820    8.1780   27.8970 C.3     1  UNL1        0.0259
     57 C           1.9040    7.6680   29.3450 C.3     1  UNL1       -0.0347
     58 C           2.6190    6.3310   29.3940 C.3     1  UNL1       -0.0387
     59 C           3.6220    6.4320   28.2690 C.3     1  UNL1       -0.0007
     60 N           2.8490    7.0920   27.2070 N.3     1  UNL1       -0.2979
     61 C           3.7620    7.5750   26.1460 C.3     1  UNL1       -0.0004
     62 C           3.0570    7.7260   24.7950 C.3     1  UNL1       -0.0348
     63 C           3.8900    8.3560   23.6790 C.3     1  UNL1       -0.0105
     64 C          -1.5760   11.3610   25.5860 C.2     1  UNL1        0.2433
     65 O          -1.9340   11.3310   26.7580 O.2     1  UNL1       -0.2704
     66 N          -2.5060   11.4110   24.5830 N.am    1  UNL1       -0.3253
@<TRIPOS>BOND
     1     3    43    1
     2     7    49    1
     3     6    47    1
     4    22    45    1
     5     2    35    1
     6    31    63    1
     7     8    50    1
     8    18    63    1
     9    43    41    1
    10    43    21    1
    11    43    44    1
    12    42    41    2
    13    49    50   ar
    14    49    48   ar
    15    19    66    1
    16    41    40    1
    17    63    37    1
    18    63    62    1
    19    40    39   ar
    20    40    36   ar
    21    47    24    1
    22    47    44    1
    23    47    32    1
    24    45    39    1
    25    45    44    1
    26    45     4    1
    27    39    38   ar
    28    35    36    1
    29    35    33    1
    30    35    20    1
    31    36    37   ar
    32    37    38   ar
    33    50    51   ar
    34    38    48    1
    35    44    46    1
    36    48    53   ar
    37    30    62    1
    38    66     1    1
    39    66    64   am
    40    62    17    1
    41    62    61    1
    42    51    64    1
    43    51    52   ar
    44    64    65    2
    45    53    52   ar
    46    53     9    1
    47    46    34    1
    48    46     5    1
    49    46    23    1
    50    16    61    1
    51    52    54    1
    52    61    29    1
    53    61    60    1
    54    11    55    1
    55    54    55    1
    56    54    10    1
    57    60    56    1
    58    60    59    1
    59    55    25    1
    60    55    56    1
    61    56    12    1
    62    56    57    1
    63    15    59    1
    64    59    28    1
    65    59    58    1
    66    14    58    1
    67    57    58    1
    68    57    13    1
    69    57    26    1
    70    58    27    1
