@<TRIPOS>MOLECULE
142.50996
 66 70 0 0 0
SMALL
GASTEIGER

@<TRIPOS>ATOM
      1 H          -3.2480   11.1530   26.8800 H       1  UNL1        0.1453
      2 H           7.4710    9.0210   22.9980 H       1  UNL1        0.0278
      3 H           6.3860   13.4500   21.5880 H       1  UNL1        0.0350
      4 H           3.8190   13.7590   24.4690 H       1  UNL1        0.0333
      5 H           6.6550   13.4210   25.4390 H       1  UNL1        0.0235
      6 H           4.9930   15.4680   21.9810 H       1  UNL1        0.0235
      7 H           2.0350   12.1980   22.9950 H       1  UNL1        0.0638
      8 H          -0.3430   12.4040   23.4930 H       1  UNL1        0.0626
      9 H           2.6660   10.3190   26.8260 H       1  UNL1        0.0657
     10 H           0.7360    9.8950   28.1940 H       1  UNL1        0.1461
     11 H          -0.3770    8.5500   25.7780 H       1  UNL1        0.0476
     12 H           1.9610    8.0720   27.3010 H       1  UNL1        0.0478
     13 H           0.1360    7.1750   29.1080 H       1  UNL1        0.0281
     14 H          -1.0250    5.6980   27.5460 H       1  UNL1        0.0278
     15 H           0.2040    4.6810   25.7450 H       1  UNL1        0.0427
     16 H           2.4400    5.7520   24.5660 H       1  UNL1        0.0427
     17 H           2.0630    8.4870   24.4700 H       1  UNL1        0.0281
     18 H           3.8320    8.7330   26.3960 H       1  UNL1        0.0328
     19 H          -1.6510   10.6950   27.4600 H       1  UNL1        0.1453
     20 H           7.6130    8.9680   24.7690 H       1  UNL1        0.0278
     21 H           7.7250   13.9850   22.6150 H       1  UNL1        0.0350
     22 H           3.8920   13.4330   22.7280 H       1  UNL1        0.0333
     23 H           5.7020   14.8950   25.6230 H       1  UNL1        0.0235
     24 H           6.3370   16.1660   22.8940 H       1  UNL1        0.0235
     25 H          -1.0580    8.1790   27.3450 H       1  UNL1        0.0476
     26 H           1.6730    6.3430   28.8140 H       1  UNL1        0.0281
     27 H           0.0490    4.5980   28.4370 H       1  UNL1        0.0278
     28 H           1.6870    4.6230   26.7200 H       1  UNL1        0.0427
     29 H           3.2540    6.2120   26.0540 H       1  UNL1        0.0427
     30 H           3.2650    7.5640   23.6130 H       1  UNL1        0.0281
     31 H           4.8990    7.8040   25.4270 H       1  UNL1        0.0328
     32 H           4.7230   16.0860   23.6170 H       1  UNL1        0.0235
     33 H           6.4990    7.8830   23.9110 H       1  UNL1        0.0278
     34 H           7.3090   14.9650   24.8880 H       1  UNL1        0.0235
     35 C           6.9130    8.8960   23.9310 C.3     1  UNL1       -0.0373
     36 C           5.8420    9.9270   24.0650 C.ar    1  UNL1       -0.0186
     37 C           4.5960    9.7770   24.6800 C.ar    1  UNL1        0.0277
     38 N           3.8900   10.9810   24.5290 N.ar    1  UNL1       -0.3161
     39 C           4.7340   11.8900   23.9100 C.ar    1  UNL1        0.0353
     40 C           5.9320   11.2700   23.6140 C.ar    1  UNL1        0.0416
     41 C           7.0360   11.9970   22.9900 C.2     1  UNL1        0.1657
     42 O           8.1130   11.4670   22.7260 O.2     1  UNL1       -0.2920
     43 C           6.7670   13.4510   22.6170 C.3     1  UNL1        0.0160
     44 C           5.7640   14.1610   23.5620 C.3     1  UNL1       -0.0225
     45 C           4.4460   13.3430   23.6710 C.3     1  UNL1       -0.0057
     46 C           6.3930   14.3670   24.9560 C.3     1  UNL1       -0.0591
     47 C           5.4350   15.5500   22.9810 C.3     1  UNL1       -0.0591
     48 C           2.5300   11.2280   24.8780 C.ar    1  UNL1        0.0484
     49 C           1.6790   11.8460   23.9580 C.ar    1  UNL1       -0.0370
     50 C           0.3110   11.9330   24.2260 C.ar    1  UNL1       -0.0459
     51 C          -0.2340   11.3590   25.3860 C.ar    1  UNL1        0.0574
     52 C           0.6240   10.7370   26.3210 C.ar    1  UNL1        0.0414
     53 C           2.0080   10.7460   26.0790 C.ar    1  UNL1       -0.0162
     54 N           0.1620    9.8830   27.3540 N.pl3   1  UNL1       -0.3417
     55 C          -0.1410    8.5190   26.8500 C.3     1  UNL1        0.0247
     56 C           1.0340    7.5250   27.1160 C.3     1  UNL1        0.0259
     57 C           0.7330    6.6650   28.3470 C.3     1  UNL1       -0.0347
     58 C           0.0230    5.4610   27.7650 C.3     1  UNL1       -0.0387
     59 C           0.7990    5.2250   26.4860 C.3     1  UNL1       -0.0007
     60 N           1.1630    6.5670   25.9930 N.3     1  UNL1       -0.2979
     61 C           2.4840    6.5310   25.3390 C.3     1  UNL1       -0.0004
     62 C           2.9210    7.8270   24.6220 C.3     1  UNL1       -0.0348
     63 C           4.0750    8.5240   25.3530 C.3     1  UNL1       -0.0105
     64 C          -1.7180   11.4650   25.5440 C.2     1  UNL1        0.2433
     65 O          -2.4380   11.8990   24.6510 O.2     1  UNL1       -0.2704
     66 N          -2.2520   11.0860   26.7390 N.am    1  UNL1       -0.3253
@<TRIPOS>BOND
     1     3    43    1
     2     6    47    1
     3    21    43    1
     4    43    41    1
     5    43    44    1
     6    42    41    2
     7    22    45    1
     8    24    47    1
     9    47    44    1
    10    47    32    1
    11    41    40    1
    12     7    49    1
    13     2    35    1
    14     8    50    1
    15    44    45    1
    16    44    46    1
    17    30    62    1
    18    40    39   ar
    19    40    36   ar
    20    45    39    1
    21    45     4    1
    22    39    38   ar
    23    33    35    1
    24    35    36    1
    25    35    20    1
    26    49    50   ar
    27    49    48   ar
    28    36    37   ar
    29    50    51   ar
    30    17    62    1
    31    38    37   ar
    32    38    48    1
    33    16    61    1
    34    62    61    1
    35    62    63    1
    36    65    64    2
    37    37    63    1
    38    48    53   ar
    39    34    46    1
    40    46     5    1
    41    46    23    1
    42    61    60    1
    43    61    29    1
    44    63    31    1
    45    63    18    1
    46    51    64    1
    47    51    52   ar
    48    64    66   am
    49    15    59    1
    50    11    55    1
    51    60    59    1
    52    60    56    1
    53    53    52   ar
    54    53     9    1
    55    52    54    1
    56    59    28    1
    57    59    58    1
    58    66     1    1
    59    66    19    1
    60    55    56    1
    61    55    25    1
    62    55    54    1
    63    56    12    1
    64    56    57    1
    65    54    10    1
    66    14    58    1
    67    58    57    1
    68    58    27    1
    69    57    26    1
    70    57    13    1
