@<TRIPOS>MOLECULE
139.37039
 66 70 0 0 0
SMALL
GASTEIGER

@<TRIPOS>ATOM
      1 H          -3.3560   11.2540   24.2520 H       1  UNL1        0.1453
      2 H           8.0560    9.5730   23.9290 H       1  UNL1        0.0278
      3 H           6.7320   13.5990   21.7080 H       1  UNL1        0.0350
      4 H           3.5940   13.8400   23.9710 H       1  UNL1        0.0333
      5 H           6.1690   14.1940   25.4800 H       1  UNL1        0.0235
      6 H           4.9840   15.3470   21.4580 H       1  UNL1        0.0235
      7 H           2.2800   11.6790   22.5810 H       1  UNL1        0.0638
      8 H          -0.1370   11.9080   22.9010 H       1  UNL1        0.0626
      9 H           2.7520   10.9890   26.7860 H       1  UNL1        0.0657
     10 H          -0.7280   11.3920   27.5460 H       1  UNL1        0.1461
     11 H           0.2630    8.8860   27.3970 H       1  UNL1        0.0476
     12 H           2.1710   10.5780   29.0620 H       1  UNL1        0.0478
     13 H           0.6830    9.1380   30.7520 H       1  UNL1        0.0281
     14 H           0.5580    7.1080   29.4460 H       1  UNL1        0.0278
     15 H           2.1970    6.6530   27.8620 H       1  UNL1        0.0427
     16 H           4.5590    8.9220   29.1250 H       1  UNL1        0.0427
     17 H           4.9370    7.4530   27.1510 H       1  UNL1        0.0281
     18 H           4.7810    8.0350   24.9450 H       1  UNL1        0.0328
     19 H          -1.9940   10.7930   23.2800 H       1  UNL1        0.1453
     20 H           8.0430   10.0070   25.6530 H       1  UNL1        0.0278
     21 H           7.7180   14.5240   22.8510 H       1  UNL1        0.0350
     22 H           4.0660   13.2760   22.3600 H       1  UNL1        0.0333
     23 H           4.9820   15.4720   25.2100 H       1  UNL1        0.0235
     24 H           5.9780   16.4160   22.4560 H       1  UNL1        0.0235
     25 H          -0.4160    9.6180   28.8300 H       1  UNL1        0.0476
     26 H           2.4470    9.0310   30.8570 H       1  UNL1        0.0281
     27 H           1.8290    6.7240   30.6230 H       1  UNL1        0.0278
     28 H           3.5040    6.9130   29.0190 H       1  UNL1        0.0427
     29 H           4.1600   10.2470   28.0670 H       1  UNL1        0.0427
     30 H           5.9580    8.8730   27.1350 H       1  UNL1        0.0281
     31 H           3.3190    8.7430   25.5390 H       1  UNL1        0.0328
     32 H           4.2790   16.1400   22.8740 H       1  UNL1        0.0235
     33 H           7.1910    8.5620   25.0780 H       1  UNL1        0.0278
     34 H           6.6770   15.7340   24.7820 H       1  UNL1        0.0235
     35 C           7.4420    9.5980   24.8350 C.3     1  UNL1       -0.0373
     36 C           6.2240   10.4330   24.6250 C.ar    1  UNL1       -0.0186
     37 C           4.9110   10.1320   24.9950 C.ar    1  UNL1        0.0277
     38 N           4.0840   11.1630   24.5330 N.ar    1  UNL1       -0.3161
     39 C           4.8850   12.1160   23.9270 C.ar    1  UNL1        0.0353
     40 C           6.2000   11.6980   23.9790 C.ar    1  UNL1        0.0416
     41 C           7.2840   12.5180   23.4470 C.2     1  UNL1        0.1657
     42 O           8.4610   12.1620   23.4780 O.2     1  UNL1       -0.2920
     43 C           6.8780   13.8240   22.7720 C.3     1  UNL1        0.0160
     44 C           5.5950   14.4620   23.3660 C.3     1  UNL1       -0.0225
     45 C           4.4270   13.4360   23.3840 C.3     1  UNL1       -0.0057
     46 C           5.8720   14.9900   24.7900 C.3     1  UNL1       -0.0591
     47 C           5.1850   15.6600   22.4880 C.3     1  UNL1       -0.0591
     48 C           2.6740   11.2560   24.6690 C.ar    1  UNL1        0.0484
     49 C           1.8620   11.5530   23.5760 C.ar    1  UNL1       -0.0370
     50 C           0.4800   11.6570   23.7590 C.ar    1  UNL1       -0.0459
     51 C          -0.0940   11.4650   25.0310 C.ar    1  UNL1        0.0574
     52 C           0.7270   11.2010   26.1490 C.ar    1  UNL1        0.0414
     53 C           2.1040   11.1040   25.9330 C.ar    1  UNL1       -0.0162
     54 N           0.2130   10.9960   27.4330 N.pl3   1  UNL1       -0.3417
     55 C           0.4070    9.7080   28.1110 C.3     1  UNL1        0.0247
     56 C           1.7630    9.5770   28.8760 C.3     1  UNL1        0.0259
     57 C           1.5840    8.8440   30.2050 C.3     1  UNL1       -0.0347
     58 C           1.5590    7.3880   29.7960 C.3     1  UNL1       -0.0387
     59 C           2.5560    7.3230   28.6500 C.3     1  UNL1       -0.0007
     60 N           2.6980    8.6960   28.1260 N.3     1  UNL1       -0.2979
     61 C           4.0930    9.1580   28.1590 C.3     1  UNL1       -0.0004
     62 C           4.9200    8.5420   27.0190 C.3     1  UNL1       -0.0348
     63 C           4.4060    8.8370   25.5980 C.3     1  UNL1       -0.0105
     64 C          -1.5750   11.5610   25.1970 C.2     1  UNL1        0.2433
     65 O          -2.0960   11.9150   26.2480 O.2     1  UNL1       -0.2704
     66 N          -2.3530   11.2000   24.1300 N.am    1  UNL1       -0.3253
@<TRIPOS>BOND
     1     6    47    1
     2     3    43    1
     3    22    45    1
     4    24    47    1
     5    47    32    1
     6    47    44    1
     7     7    49    1
     8    43    21    1
     9    43    44    1
    10    43    41    1
    11     8    50    1
    12    19    66    1
    13    44    45    1
    14    44    46    1
    15    45    39    1
    16    45     4    1
    17    41    42    2
    18    41    40    1
    19    49    50   ar
    20    49    48   ar
    21    50    51   ar
    22    39    40   ar
    23    39    38   ar
    24     2    35    1
    25    40    36   ar
    26    66     1    1
    27    66    64   am
    28    38    48    1
    29    38    37   ar
    30    36    35    1
    31    36    37   ar
    32    48    53   ar
    33    34    46    1
    34    46    23    1
    35    46     5    1
    36    35    33    1
    37    35    20    1
    38    18    63    1
    39    37    63    1
    40    51    64    1
    41    51    52   ar
    42    64    65    2
    43    31    63    1
    44    63    62    1
    45    53    52   ar
    46    53     9    1
    47    52    54    1
    48    62    30    1
    49    62    17    1
    50    62    61    1
    51    11    55    1
    52    54    10    1
    53    54    55    1
    54    15    59    1
    55    29    61    1
    56    55    25    1
    57    55    56    1
    58    60    61    1
    59    60    59    1
    60    60    56    1
    61    61    16    1
    62    59    28    1
    63    59    58    1
    64    56    12    1
    65    56    57    1
    66    14    58    1
    67    58    57    1
    68    58    27    1
    69    57    13    1
    70    57    26    1
