@<TRIPOS>MOLECULE
131.22569
 66 70 0 0 0
SMALL
GASTEIGER

@<TRIPOS>ATOM
      1 H          -3.2610   11.2900   24.4780 H       1  UNL1        0.1453
      2 H           7.8600    9.4360   22.8140 H       1  UNL1        0.0278
      3 H           7.0890   14.1420   23.1770 H       1  UNL1        0.0350
      4 H           3.9550   13.4910   25.3720 H       1  UNL1        0.0333
      5 H           6.5210   12.7250   26.7220 H       1  UNL1        0.0235
      6 H           5.5570   15.9370   23.9540 H       1  UNL1        0.0235
      7 H           2.3380   12.4970   23.1470 H       1  UNL1        0.0638
      8 H          -0.0660   12.5780   23.6420 H       1  UNL1        0.0626
      9 H           2.8870    9.6900   26.3310 H       1  UNL1        0.0657
     10 H          -0.6590    9.5600   27.2200 H       1  UNL1        0.1461
     11 H           0.4700    8.2460   28.6860 H       1  UNL1        0.0476
     12 H           1.7680    6.4100   27.8320 H       1  UNL1        0.0478
     13 H          -0.8860    7.0640   26.7070 H       1  UNL1        0.0281
     14 H          -0.1960    6.6880   24.5250 H       1  UNL1        0.0278
     15 H           2.0310    5.9520   24.0450 H       1  UNL1        0.0427
     16 H           3.8890    6.1820   26.6650 H       1  UNL1        0.0427
     17 H           4.3990    6.2950   24.3200 H       1  UNL1        0.0281
     18 H           4.4230    8.0560   22.9070 H       1  UNL1        0.0328
     19 H          -1.9100   11.3790   23.3910 H       1  UNL1        0.1453
     20 H           7.9090    8.9100   24.5120 H       1  UNL1        0.0278
     21 H           8.1510   14.2150   24.5920 H       1  UNL1        0.0350
     22 H           4.3790   13.8180   23.6860 H       1  UNL1        0.0333
     23 H           5.4970   14.0760   27.2140 H       1  UNL1        0.0235
     24 H           6.6480   16.2090   25.3200 H       1  UNL1        0.0235
     25 H           2.0090    8.8620   28.1510 H       1  UNL1        0.0476
     26 H          -0.2140    5.5390   27.2920 H       1  UNL1        0.0281
     27 H          -0.2530    4.9840   25.0140 H       1  UNL1        0.0278
     28 H           2.1130    4.9660   25.5280 H       1  UNL1        0.0427
     29 H           3.8360    7.9180   26.8150 H       1  UNL1        0.0427
     30 H           5.5100    7.3180   25.1990 H       1  UNL1        0.0281
     31 H           3.0200    8.4910   23.8150 H       1  UNL1        0.0328
     32 H           4.9210   15.9420   25.6060 H       1  UNL1        0.0235
     33 H           6.8800    8.0700   23.3380 H       1  UNL1        0.0278
     34 H           7.2190   14.3360   26.9120 H       1  UNL1        0.0235
     35 C           7.2580    9.0500   23.6430 C.3     1  UNL1       -0.0373
     36 C           6.1530    9.9960   23.9760 C.ar    1  UNL1       -0.0186
     37 C           4.8020    9.6970   24.1570 C.ar    1  UNL1        0.0277
     38 N           4.1260   10.8950   24.4070 N.ar    1  UNL1       -0.3161
     39 C           5.0390   11.9290   24.3610 C.ar    1  UNL1        0.0353
     40 C           6.2940   11.4030   24.1230 C.ar    1  UNL1        0.0416
     41 C           7.4780   12.2560   24.0650 C.2     1  UNL1        0.1657
     42 O           8.6050   11.8100   23.8600 O.2     1  UNL1       -0.2920
     43 C           7.2380   13.7570   24.1940 C.3     1  UNL1        0.0160
     44 C           6.0240   14.1230   25.0890 C.3     1  UNL1       -0.0225
     45 C           4.7440   13.3740   24.6200 C.3     1  UNL1       -0.0057
     46 C           6.3330   13.7920   26.5650 C.3     1  UNL1       -0.0591
     47 C           5.7730   15.6390   24.9870 C.3     1  UNL1       -0.0591
     48 C           2.7450   11.0300   24.6870 C.ar    1  UNL1        0.0484
     49 C           1.9350   11.8860   23.9500 C.ar    1  UNL1       -0.0370
     50 C           0.5650   11.9060   24.2170 C.ar    1  UNL1       -0.0459
     51 C           0.0100   11.0700   25.2120 C.ar    1  UNL1        0.0574
     52 C           0.8390   10.2470   26.0080 C.ar    1  UNL1        0.0414
     53 C           2.2060   10.2670   25.7230 C.ar    1  UNL1       -0.0162
     54 N           0.3270    9.4140   26.9890 N.pl3   1  UNL1       -0.3417
     55 C           1.0660    8.4400   27.7850 C.3     1  UNL1        0.0247
     56 C           1.3050    7.0720   27.0860 C.3     1  UNL1        0.0259
     57 C          -0.0130    6.4070   26.6530 C.3     1  UNL1       -0.0347
     58 C           0.2190    5.9490   25.2220 C.3     1  UNL1       -0.0387
     59 C           1.7270    5.8960   25.0940 C.3     1  UNL1       -0.0007
     60 N           2.1470    7.0680   25.8650 N.3     1  UNL1       -0.2979
     61 C           3.5880    7.0970   26.1360 C.3     1  UNL1       -0.0004
     62 C           4.4650    7.2380   24.8780 C.3     1  UNL1       -0.0348
     63 C           4.1030    8.3750   23.9100 C.3     1  UNL1       -0.0105
     64 C          -1.4690   11.0740   25.4270 C.2     1  UNL1        0.2433
     65 O          -1.9790   10.8440   26.5180 O.2     1  UNL1       -0.2704
     66 N          -2.2600   11.3090   24.3340 N.am    1  UNL1       -0.3253
@<TRIPOS>BOND
     1     2    35    1
     2    18    63    1
     3     7    49    1
     4     3    43    1
     5    33    35    1
     6    19    66    1
     7     8    50    1
     8    35    36    1
     9    35    20    1
    10    22    45    1
    11    31    63    1
    12    42    41    2
    13    63    37    1
    14    63    62    1
    15    49    50   ar
    16    49    48   ar
    17     6    47    1
    18    36    40   ar
    19    36    37   ar
    20    15    59    1
    21    41    40    1
    22    41    43    1
    23    40    39   ar
    24    37    38   ar
    25    43    21    1
    26    43    44    1
    27    50    51   ar
    28    17    62    1
    29    66     1    1
    30    66    64   am
    31    39    38   ar
    32    39    45    1
    33    38    48    1
    34    14    58    1
    35    45    44    1
    36    45     4    1
    37    48    53   ar
    38    62    30    1
    39    62    61    1
    40    47    44    1
    41    47    24    1
    42    47    32    1
    43    27    58    1
    44    44    46    1
    45    59    58    1
    46    59    28    1
    47    59    60    1
    48    51    64    1
    49    51    52   ar
    50    58    57    1
    51    64    65    2
    52    53    52   ar
    53    53     9    1
    54    60    61    1
    55    60    56    1
    56    52    54    1
    57    61    16    1
    58    61    29    1
    59    46     5    1
    60    46    34    1
    61    46    23    1
    62    57    13    1
    63    57    56    1
    64    57    26    1
    65    54    10    1
    66    54    55    1
    67    56    55    1
    68    56    12    1
    69    55    25    1
    70    55    11    1
