@<TRIPOS>MOLECULE
138.65652
 102 105 0 0 0
SMALL
GASTEIGER

@<TRIPOS>ATOM
      1 H          35.9690   -3.6290  118.7980 H       1  UNL1        0.0669
      2 H          36.2590   -6.1410  117.0320 H       1  UNL1        0.0619
      3 H          38.3600   -4.1180  118.1380 H       1  UNL1        0.0618
      4 H          38.5100   -6.4830  116.1760 H       1  UNL1        0.0617
      5 H          40.6550   -4.5330  117.3190 H       1  UNL1        0.0614
      6 H          40.7610   -6.8680  115.3210 H       1  UNL1        0.0569
      7 H          35.4630    0.3040  112.9370 H       1  UNL1        0.0429
      8 H          37.1640    0.0610  113.3800 H       1  UNL1        0.0429
      9 H          36.0260    0.8240  114.5300 H       1  UNL1        0.0429
     10 H          32.8750   -3.3150  124.5400 H       1  UNL1        0.0618
     11 H          33.8080   -2.8950  118.5250 H       1  UNL1        0.1498
     12 H          31.7450   -5.0340  118.6990 H       1  UNL1        0.0598
     13 H          30.1870   -3.2000  119.3630 H       1  UNL1        0.0336
     14 H          31.1420   -5.1840  121.0900 H       1  UNL1        0.0620
     15 H          32.3930   -1.0570  120.9210 H       1  UNL1        0.0620
     16 H          31.8820   -5.3030  123.4380 H       1  UNL1        0.0618
     17 H          33.1240   -1.1940  123.2760 H       1  UNL1        0.0618
     18 H          31.4030   -1.9960  119.0270 H       1  UNL1        0.0336
     19 H          31.4740   -0.7550  113.5590 H       1  UNL1        0.0721
     20 H          32.8780   -2.3340  116.6540 H       1  UNL1        0.1496
     21 H          30.4550   -2.4420  115.0340 H       1  UNL1        0.0629
     22 H          33.0220   -0.9560  114.3980 H       1  UNL1        0.0721
     23 H          33.0670   -4.6070  111.6690 H       1  UNL1        0.0465
     24 H          34.3310   -3.2730  115.3300 H       1  UNL1        0.0597
     25 H          35.2990   -5.3620  114.7040 H       1  UNL1        0.0288
     26 H          35.2950   -6.0820  112.3960 H       1  UNL1        0.0281
     27 H          32.9900   -5.8030  112.9840 H       1  UNL1        0.0465
     28 H          36.4980   -4.2730  113.9740 H       1  UNL1        0.0288
     29 H          35.4190   -4.4160  111.8140 H       1  UNL1        0.0281
     30 H          36.2690    2.5700  118.4890 H       1  UNL1        0.0252
     31 H          36.5520    0.7830  116.8620 H       1  UNL1        0.1495
     32 H          35.1650   -0.1610  119.2280 H       1  UNL1        0.0592
     33 H          36.8290    1.4210  119.6840 H       1  UNL1        0.0252
     34 H          35.3070    2.2880  119.9560 H       1  UNL1        0.0252
     35 H          42.8960   -4.9300  116.4740 H       1  UNL1        0.0272
     36 H          42.8600   -5.5280  114.8060 H       1  UNL1        0.0272
     37 H          43.1580   -6.6520  116.1450 H       1  UNL1        0.0272
     38 H          38.3530   -1.4950  116.7160 H       1  UNL1        0.0252
     39 H          36.4580   -2.6740  115.7410 H       1  UNL1        0.0594
     40 H          38.1080   -0.1180  115.6420 H       1  UNL1        0.0252
     41 H          38.5330   -1.6910  114.9630 H       1  UNL1        0.0252
     42 H          33.5070    3.8350  115.0930 H       1  UNL1        0.0314
     43 H          31.2560    1.5530  117.3130 H       1  UNL1        0.0616
     44 H          31.3030    3.9330  117.1950 H       1  UNL1        0.0292
     45 H          35.0360    2.9490  116.6010 H       1  UNL1        0.0467
     46 H          32.9530    5.7650  117.4070 H       1  UNL1        0.0233
     47 H          34.2720    5.8950  116.2320 H       1  UNL1        0.0233
     48 H          31.1520    3.5650  115.4650 H       1  UNL1        0.0292
     49 H          34.2840    3.7430  118.0110 H       1  UNL1        0.0467
     50 H          32.5890    6.0540  115.6980 H       1  UNL1        0.0233
     51 C          34.2650   -4.8880  118.1850 C.2     1  UNL1        0.2375
     52 C          35.6990   -4.5130  118.2370 C.2     1  UNL1        0.0001
     53 C          36.5960   -5.2600  117.5790 C.2     1  UNL1       -0.0569
     54 C          38.0070   -4.9500  117.5330 C.2     1  UNL1       -0.0616
     55 C          38.8680   -5.6480  116.7770 C.2     1  UNL1       -0.0621
     56 C          40.2800   -5.3510  116.7080 C.2     1  UNL1       -0.0659
     57 C          41.1260   -6.0440  115.9320 C.2     1  UNL1       -0.0871
     58 C          42.5910   -5.7670  115.8390 C.3     1  UNL1       -0.0465
     59 O          33.8930   -6.0150  117.8850 O.2     1  UNL1       -0.2708
     60 N          33.4310   -3.8370  118.4540 N.am    1  UNL1       -0.3002
     61 C          31.9790   -3.9970  118.4310 C.3     1  UNL1        0.1036
     62 C          31.4180   -3.7630  117.0160 C.2     1  UNL1        0.2344
     63 O          30.3510   -4.2640  116.6610 O.2     1  UNL1       -0.2738
     64 C          31.2710   -3.0230  119.3870 C.3     1  UNL1       -0.0006
     65 C          31.7280   -3.1150  120.8260 C.ar    1  UNL1       -0.0451
     66 C          31.5830   -4.3040  121.5530 C.ar    1  UNL1       -0.0585
     67 C          32.2850   -1.9960  121.4610 C.ar    1  UNL1       -0.0585
     68 C          31.9990   -4.3750  122.8840 C.ar    1  UNL1       -0.0615
     69 C          32.6990   -2.0680  122.7920 C.ar    1  UNL1       -0.0615
     70 C          32.5570   -3.2580  123.5030 C.ar    1  UNL1       -0.0617
     71 N          32.0680   -2.8070  116.2570 N.am    1  UNL1       -0.2997
     72 C          31.5490   -2.4230  114.9440 C.3     1  UNL1        0.1340
     73 C          31.9190   -3.4260  113.8260 C.2     1  UNL1        0.2399
     74 O          31.0390   -3.7660  113.0230 O.2     1  UNL1       -0.2734
     75 C          31.9430   -1.0090  114.5160 C.3     1  UNL1        0.1193
     76 O          31.5360   -0.0360  115.4960 O.3     1  UNL1       -0.4610
     77 N          33.2230   -3.8470  113.6310 N.am    1  UNL1       -0.2883
     78 C          34.4790   -3.4090  114.2640 C.3     1  UNL1        0.1025
     79 C          35.0120   -2.0990  113.6100 C.2     1  UNL1        0.2365
     80 O          34.6840   -1.8120  112.4530 O.2     1  UNL1       -0.2735
     81 C          35.4430   -4.5610  113.9700 C.3     1  UNL1       -0.0243
     82 C          34.9930   -5.0500  112.5990 C.3     1  UNL1       -0.0350
     83 C          33.4810   -4.8850  112.6430 C.3     1  UNL1        0.0156
     84 N          35.8580   -1.2560  114.3350 N.am    1  UNL1       -0.2917
     85 C          36.1390    0.0560  113.7600 C.3     1  UNL1        0.0040
     86 C          36.4730   -1.5850  115.6340 C.3     1  UNL1        0.0991
     87 C          37.9470   -1.1950  115.7440 C.3     1  UNL1       -0.0379
     88 C          35.6090   -1.0690  116.8090 C.2     1  UNL1        0.2339
     89 O          34.6420   -1.7220  117.2060 O.2     1  UNL1       -0.2738
     90 N          35.8860    0.1780  117.3230 N.am    1  UNL1       -0.3027
     91 C          35.1810    0.6730  118.5110 C.3     1  UNL1        0.0968
     92 C          33.6930    0.9440  118.1860 C.2     1  UNL1        0.2363
     93 O          32.8410    0.1200  118.5350 O.2     1  UNL1       -0.2736
     94 C          35.9280    1.8070  119.1930 C.3     1  UNL1       -0.0381
     95 C          32.2600    1.1190  115.4370 C.2     1  UNL1        0.3279
     96 N          33.3380    2.0070  117.3910 N.am    1  UNL1       -0.2862
     97 O          33.0750    1.3850  114.5590 O.2     1  UNL1       -0.2487
     98 C          32.0510    1.9770  116.6920 C.3     1  UNL1        0.1233
     99 C          31.7900    3.4380  116.3460 C.3     1  UNL1       -0.0199
    100 C          34.0860    3.2120  117.0750 C.3     1  UNL1        0.0182
    101 C          33.2540    5.5190  116.3830 C.3     1  UNL1       -0.0609
    102 C          33.1940    4.0220  116.1280 C.3     1  UNL1       -0.0258
@<TRIPOS>BOND
     1    23    83    1
     2    29    82    1
     3    26    82    1
     4    80    79    2
     5    82    83    1
     6    82    81    1
     7    83    27    1
     8    83    77    1
     9     7    85    1
    10    74    73    2
    11     8    85    1
    12    19    75    1
    13    79    78    1
    14    79    84   am
    15    77    73   am
    16    77    78    1
    17    85    84    1
    18    85     9    1
    19    73    72    1
    20    81    28    1
    21    81    78    1
    22    81    25    1
    23    78    24    1
    24    84    86    1
    25    22    75    1
    26    75    72    1
    27    75    76    1
    28    97    95    2
    29    36    58    1
    30    72    21    1
    31    72    71    1
    32    41    87    1
    33    42   102    1
    34     6    57    1
    35    95    76    1
    36    95    98    1
    37    48    99    1
    38    86    39    1
    39    86    87    1
    40    86    88    1
    41    40    87    1
    42    50   101    1
    43    87    38    1
    44    58    57    1
    45    58    37    1
    46    58    35    1
    47    57    56    2
    48   102    99    1
    49   102   101    1
    50   102   100    1
    51     4    55    1
    52    47   101    1
    53    71    20    1
    54    71    62   am
    55    99    98    1
    56    99    44    1
    57   101    46    1
    58    45   100    1
    59    63    62    2
    60    98    43    1
    61    98    96    1
    62    56    55    1
    63    56     5    1
    64    55    54    2
    65    88    89    2
    66    88    90   am
    67    31    90    1
    68    62    61    1
    69     2    53    1
    70   100    96    1
    71   100    49    1
    72    90    91    1
    73    96    92   am
    74    54    53    1
    75    54     3    1
    76    53    52    2
    77    59    51    2
    78    51    52    1
    79    51    60   am
    80    92    91    1
    81    92    93    2
    82    52     1    1
    83    61    60    1
    84    61    12    1
    85    61    64    1
    86    60    11    1
    87    30    94    1
    88    91    94    1
    89    91    32    1
    90    18    64    1
    91    94    33    1
    92    94    34    1
    93    13    64    1
    94    64    65    1
    95    65    67   ar
    96    65    66   ar
    97    15    67    1
    98    14    66    1
    99    67    69   ar
   100    66    68   ar
   101    69    17    1
   102    69    70   ar
   103    68    16    1
   104    68    70   ar
   105    70    10    1
