@<TRIPOS>MOLECULE
122.86357
 102 105 0 0 0
SMALL
GASTEIGER

@<TRIPOS>ATOM
      1 H          25.9980    4.2390  127.5040 H       1  UNL1        0.0669
      2 H          27.9180    6.1070  125.9830 H       1  UNL1        0.0619
      3 H          25.7080    6.6270  128.1220 H       1  UNL1        0.0618
      4 H          27.5940    8.4720  126.5420 H       1  UNL1        0.0617
      5 H          25.3660    8.9950  128.6580 H       1  UNL1        0.0614
      6 H          27.1990   10.8430  127.0200 H       1  UNL1        0.0569
      7 H          27.3290    3.2460  115.0110 H       1  UNL1        0.0429
      8 H          29.0100    3.6500  115.4160 H       1  UNL1        0.0429
      9 H          27.6530    4.4670  116.2540 H       1  UNL1        0.0429
     10 H          28.6880   -4.1610  122.6220 H       1  UNL1        0.0618
     11 H          26.0020    2.1760  126.6650 H       1  UNL1        0.1498
     12 H          28.1870    1.3370  124.8090 H       1  UNL1        0.0598
     13 H          26.0450   -0.3690  126.2370 H       1  UNL1        0.0336
     14 H          25.5190   -1.8970  124.4240 H       1  UNL1        0.0620
     15 H          29.6390   -0.9910  125.3530 H       1  UNL1        0.0620
     16 H          26.2680   -3.7060  122.9210 H       1  UNL1        0.0618
     17 H          30.3650   -2.8010  123.8410 H       1  UNL1        0.0618
     18 H          27.6860   -0.1880  126.8090 H       1  UNL1        0.0336
     19 H          24.5930    3.2820  122.3170 H       1  UNL1        0.0721
     20 H          27.6760    1.4280  122.6770 H       1  UNL1        0.1496
     21 H          24.9710    0.9830  121.7130 H       1  UNL1        0.0629
     22 H          24.8950    3.3310  120.5870 H       1  UNL1        0.0721
     23 H          23.9340    1.2350  119.5060 H       1  UNL1        0.0465
     24 H          27.6630    0.1870  118.1740 H       1  UNL1        0.0597
     25 H          26.0480   -1.4100  117.6420 H       1  UNL1        0.0288
     26 H          23.7010   -0.9270  117.7660 H       1  UNL1        0.0281
     27 H          24.4830   -0.4010  119.9480 H       1  UNL1        0.0465
     28 H          25.8500   -0.3720  116.2180 H       1  UNL1        0.0288
     29 H          23.9310    0.7290  117.2030 H       1  UNL1        0.0281
     30 H          30.3990    6.4240  116.7760 H       1  UNL1        0.0252
     31 H          28.3510    4.4150  118.3850 H       1  UNL1        0.1495
     32 H          30.6200    5.4950  119.6910 H       1  UNL1        0.0592
     33 H          31.7750    5.5950  117.5060 H       1  UNL1        0.0252
     34 H          31.3710    7.2320  118.0180 H       1  UNL1        0.0252
     35 H          24.9700   11.3350  129.1280 H       1  UNL1        0.0272
     36 H          25.2530   12.3360  127.6920 H       1  UNL1        0.0272
     37 H          26.4630   12.2820  128.9900 H       1  UNL1        0.0272
     38 H          31.0030    0.8900  117.1520 H       1  UNL1        0.0252
     39 H          29.0530    1.5820  118.4250 H       1  UNL1        0.0594
     40 H          30.4600    1.7910  115.7330 H       1  UNL1        0.0252
     41 H          29.5420    0.3820  116.2870 H       1  UNL1        0.0252
     42 H          25.9150    6.9070  122.0220 H       1  UNL1        0.0314
     43 H          29.1500    4.9920  121.3210 H       1  UNL1        0.0616
     44 H          28.7960    6.6700  123.0270 H       1  UNL1        0.0292
     45 H          26.6920    8.0440  120.1230 H       1  UNL1        0.0467
     46 H          27.7730    8.9040  123.4270 H       1  UNL1        0.0233
     47 H          26.1370    9.2510  122.8420 H       1  UNL1        0.0233
     48 H          27.4490    5.5780  123.3690 H       1  UNL1        0.0292
     49 H          28.1390    8.6730  120.9440 H       1  UNL1        0.0467
     50 H          26.3810    8.0770  124.1450 H       1  UNL1        0.0233
     51 C          27.4280    3.5080  125.9830 C.2     1  UNL1        0.2375
     52 C          26.7770    4.5460  126.8190 C.2     1  UNL1        0.0001
     53 C          27.1340    5.8320  126.6870 C.2     1  UNL1       -0.0569
     54 C          26.4940    6.9010  127.4220 C.2     1  UNL1       -0.0616
     55 C          26.8130    8.1930  127.2470 C.2     1  UNL1       -0.0621
     56 C          26.1420    9.2660  127.9440 C.2     1  UNL1       -0.0659
     57 C          26.4290   10.5590  127.7340 C.2     1  UNL1       -0.0871
     58 C          25.7360   11.6870  128.4290 C.3     1  UNL1       -0.0465
     59 O          28.3500    3.7510  125.2140 O.2     1  UNL1       -0.2708
     60 N          26.8540    2.2720  126.1270 N.am    1  UNL1       -0.3002
     61 C          27.1780    1.1810  125.2080 C.3     1  UNL1        0.1036
     62 C          26.1410    1.2880  124.0770 C.2     1  UNL1        0.2344
     63 O          24.9290    1.3090  124.2910 O.2     1  UNL1       -0.2738
     64 C          27.0730   -0.1830  125.8970 C.3     1  UNL1       -0.0006
     65 C          27.5240   -1.3150  125.0040 C.ar    1  UNL1       -0.0451
     66 C          26.5840   -2.0880  124.3090 C.ar    1  UNL1       -0.0585
     67 C          28.8890   -1.5800  124.8280 C.ar    1  UNL1       -0.0585
     68 C          27.0030   -3.1100  123.4550 C.ar    1  UNL1       -0.0615
     69 C          29.3040   -2.6010  123.9730 C.ar    1  UNL1       -0.0615
     70 C          28.3620   -3.3660  123.2870 C.ar    1  UNL1       -0.0617
     71 N          26.6690    1.4130  122.8190 N.am    1  UNL1       -0.2997
     72 C          25.8360    1.6480  121.6420 C.3     1  UNL1        0.1340
     73 C          26.6640    1.3040  120.3970 C.2     1  UNL1        0.2399
     74 O          27.8890    1.4590  120.4100 O.2     1  UNL1       -0.2734
     75 C          25.3580    3.1040  121.5540 C.3     1  UNL1        0.1193
     76 O          26.4270    4.0280  121.8530 O.3     1  UNL1       -0.4610
     77 N          25.9930    0.8590  119.2810 N.am    1  UNL1       -0.2883
     78 C          26.6800    0.6280  118.0100 C.3     1  UNL1        0.1025
     79 C          26.7520    1.9290  117.1610 C.2     1  UNL1        0.2365
     80 O          25.7110    2.4480  116.7370 O.2     1  UNL1       -0.2735
     81 C          25.7800   -0.4000  117.3090 C.3     1  UNL1       -0.0243
     82 C          24.3770   -0.0670  117.8080 C.3     1  UNL1       -0.0350
     83 C          24.6060    0.4180  119.2300 C.3     1  UNL1        0.0156
     84 N          27.9880    2.4900  116.8570 N.am    1  UNL1       -0.2917
     85 C          28.0050    3.5240  115.8260 C.3     1  UNL1        0.0040
     86 C          29.2660    2.1510  117.5240 C.3     1  UNL1        0.0991
     87 C          30.1150    1.2530  116.6230 C.3     1  UNL1       -0.0379
     88 C          30.0930    3.3550  118.0430 C.2     1  UNL1        0.2339
     89 O          31.3020    3.2690  118.2580 O.2     1  UNL1       -0.2738
     90 N          29.3720    4.4810  118.3750 N.am    1  UNL1       -0.3027
     91 C          30.0130    5.7180  118.8060 C.3     1  UNL1        0.0968
     92 C          28.9800    6.8110  119.1800 C.2     1  UNL1        0.2363
     93 O          28.8160    7.8070  118.4680 O.2     1  UNL1       -0.2736
     94 C          30.9410    6.2710  117.7160 C.3     1  UNL1       -0.0381
     95 C          27.1020    4.5710  120.8060 C.2     1  UNL1        0.3279
     96 N          28.2730    6.6830  120.3570 N.am    1  UNL1       -0.2862
     97 O          26.8840    4.3010  119.6290 O.2     1  UNL1       -0.2487
     98 C          28.2060    5.5410  121.2800 C.3     1  UNL1        0.1233
     99 C          27.8810    6.2320  122.6080 C.3     1  UNL1       -0.0199
    100 C          27.4800    7.8030  120.8450 C.3     1  UNL1        0.0182
    101 C          26.7970    8.4580  123.2080 C.3     1  UNL1       -0.0609
    102 C          26.9100    7.3410  122.1850 C.3     1  UNL1       -0.0258
@<TRIPOS>BOND
     1     7    85    1
     2     8    85    1
     3    40    87    1
     4    85     9    1
     5    85    84    1
     6    28    81    1
     7    41    87    1
     8    87    38    1
     9    87    86    1
    10    80    79    2
    11    30    94    1
    12    84    79   am
    13    84    86    1
    14    79    78    1
    15    29    82    1
    16    81    25    1
    17    81    82    1
    18    81    78    1
    19    33    94    1
    20    86    88    1
    21    86    39    1
    22    94    34    1
    23    94    91    1
    24    26    82    1
    25    82    83    1
    26    78    24    1
    27    78    77    1
    28    88    89    2
    29    88    90   am
    30    90    31    1
    31    90    91    1
    32    93    92    2
    33    91    92    1
    34    91    32    1
    35    92    96   am
    36    83    77    1
    37    83    23    1
    38    83    27    1
    39    77    73   am
    40    97    95    2
    41    45   100    1
    42    96   100    1
    43    96    98    1
    44    73    74    2
    45    73    72    1
    46    22    75    1
    47    95    98    1
    48    95    76    1
    49   100    49    1
    50   100   102    1
    51    98    43    1
    52    98    99    1
    53    75    72    1
    54    75    76    1
    55    75    19    1
    56    72    21    1
    57    72    71    1
    58    42   102    1
    59   102    99    1
    60   102   101    1
    61    99    44    1
    62    99    48    1
    63    10    70    1
    64    20    71    1
    65    71    62   am
    66    47   101    1
    67    16    68    1
    68   101    46    1
    69   101    50    1
    70    70    68   ar
    71    70    69   ar
    72    68    66   ar
    73    17    69    1
    74    69    67   ar
    75    62    63    2
    76    62    61    1
    77    66    14    1
    78    66    65   ar
    79    12    61    1
    80    67    65   ar
    81    67    15    1
    82    65    64    1
    83    61    64    1
    84    61    60    1
    85    59    51    2
    86    64    13    1
    87    64    18    1
    88     2    53    1
    89    51    60   am
    90    51    52    1
    91    60    11    1
    92     4    55    1
    93    53    52    2
    94    53    54    1
    95    52     1    1
    96     6    57    1
    97    55    54    2
    98    55    56    1
    99    54     3    1
   100    36    58    1
   101    57    56    2
   102    57    58    1
   103    56     5    1
   104    58    37    1
   105    58    35    1
