@<TRIPOS>MOLECULE
129.82474
 102 105 0 0 0
SMALL
GASTEIGER

@<TRIPOS>ATOM
      1 H          31.5490    0.8690  110.1470 H       1  UNL1        0.0669
      2 H          31.5730    2.0910  107.3180 H       1  UNL1        0.0619
      3 H          33.6070    2.1960  109.6800 H       1  UNL1        0.0618
      4 H          33.5380    3.4950  106.8940 H       1  UNL1        0.0617
      5 H          35.5860    3.5750  109.2420 H       1  UNL1        0.0614
      6 H          35.4920    4.9210  106.4790 H       1  UNL1        0.0569
      7 H          20.3430   -1.6280  115.9130 H       1  UNL1        0.0429
      8 H          21.7260   -0.4880  115.8640 H       1  UNL1        0.0429
      9 H          21.8990   -2.0490  116.6650 H       1  UNL1        0.0429
     10 H          22.9010   -3.2800  107.1800 H       1  UNL1        0.0618
     11 H          29.5350   -0.0320  110.6580 H       1  UNL1        0.1498
     12 H          27.3300    0.2100  108.7820 H       1  UNL1        0.0598
     13 H          28.1370   -2.6070  109.7520 H       1  UNL1        0.0336
     14 H          25.8620   -3.3510  110.2800 H       1  UNL1        0.0620
     15 H          26.6930   -1.3770  106.5280 H       1  UNL1        0.0620
     16 H          23.6190   -3.9470  109.4600 H       1  UNL1        0.0618
     17 H          24.4430   -1.9950  105.7200 H       1  UNL1        0.0618
     18 H          28.5300   -2.0240  108.1530 H       1  UNL1        0.0336
     19 H          24.6810    1.9910  113.3200 H       1  UNL1        0.0721
     20 H          25.3960    0.2690  109.8710 H       1  UNL1        0.1496
     21 H          24.7780   -0.6430  112.4320 H       1  UNL1        0.0629
     22 H          26.2000    2.0350  112.3860 H       1  UNL1        0.0721
     23 H          21.0650    0.6960  110.3930 H       1  UNL1        0.0465
     24 H          22.9130    0.4350  114.0620 H       1  UNL1        0.0597
     25 H          20.8680    1.6830  114.0660 H       1  UNL1        0.0288
     26 H          19.2140    1.3820  112.3060 H       1  UNL1        0.0281
     27 H          21.2430    2.2060  111.3180 H       1  UNL1        0.0465
     28 H          20.1510    0.1030  114.3990 H       1  UNL1        0.0288
     29 H          19.7050   -0.3070  112.0690 H       1  UNL1        0.0281
     30 H          25.8000   -2.5310  113.1480 H       1  UNL1        0.0252
     31 H          23.7540   -2.1840  115.4100 H       1  UNL1        0.1495
     32 H          26.0930   -3.6030  116.0350 H       1  UNL1        0.0592
     33 H          26.2020   -4.1840  113.6020 H       1  UNL1        0.0252
     34 H          27.3680   -2.8910  113.8510 H       1  UNL1        0.0252
     35 H          37.5240    4.9660  108.8300 H       1  UNL1        0.0272
     36 H          37.1010    6.3660  107.8270 H       1  UNL1        0.0272
     37 H          37.9560    4.9860  107.1110 H       1  UNL1        0.0272
     38 H          21.1840   -5.4760  113.7480 H       1  UNL1        0.0252
     39 H          21.5250   -3.9860  115.5570 H       1  UNL1        0.0594
     40 H          21.7890   -4.3540  112.5440 H       1  UNL1        0.0252
     41 H          20.2460   -4.0220  113.3590 H       1  UNL1        0.0252
     42 H          29.4860   -0.1890  114.8390 H       1  UNL1        0.0314
     43 H          26.4810    0.8720  116.9780 H       1  UNL1        0.0616
     44 H          28.7160    0.8350  117.6110 H       1  UNL1        0.0292
     45 H          28.5060   -2.3300  115.4250 H       1  UNL1        0.0467
     46 H          30.5880   -0.8010  117.6420 H       1  UNL1        0.0233
     47 H          31.1630   -1.5150  116.1270 H       1  UNL1        0.0233
     48 H          29.0090    1.7890  116.1480 H       1  UNL1        0.0292
     49 H          28.3780   -1.8990  117.1320 H       1  UNL1        0.0467
     50 H          31.3630    0.2220  116.4220 H       1  UNL1        0.0233
     51 C          29.9040    0.5820  108.6970 C.2     1  UNL1        0.2375
     52 C          31.2180    1.1050  109.1450 C.2     1  UNL1        0.0001
     53 C          31.9470    1.8680  108.3170 C.2     1  UNL1       -0.0569
     54 C          33.2230    2.4380  108.6920 C.2     1  UNL1       -0.0616
     55 C          33.9230    3.2460  107.8810 C.2     1  UNL1       -0.0621
     56 C          35.1910    3.8290  108.2600 C.2     1  UNL1       -0.0659
     57 C          35.8790    4.6580  107.4610 C.2     1  UNL1       -0.0871
     58 C          37.1880    5.2750  107.8350 C.3     1  UNL1       -0.0465
     59 O          29.5100    0.6700  107.5420 O.2     1  UNL1       -0.2708
     60 N          29.1780    0.0160  109.7100 N.am    1  UNL1       -0.3002
     61 C          27.8150   -0.4690  109.4940 C.3     1  UNL1        0.1036
     62 C          27.0970   -0.3810  110.8550 C.2     1  UNL1        0.2344
     63 O          27.6610   -0.6750  111.9090 O.2     1  UNL1       -0.2738
     64 C          27.8050   -1.9100  108.9710 C.3     1  UNL1       -0.0006
     65 C          26.4460   -2.3260  108.4600 C.ar    1  UNL1       -0.0451
     66 C          25.5690   -3.0530  109.2760 C.ar    1  UNL1       -0.0585
     67 C          26.0300   -1.9470  107.1760 C.ar    1  UNL1       -0.0585
     68 C          24.2970   -3.3930  108.8150 C.ar    1  UNL1       -0.0615
     69 C          24.7590   -2.2930  106.7160 C.ar    1  UNL1       -0.0615
     70 C          23.8930   -3.0150  107.5360 C.ar    1  UNL1       -0.0617
     71 N          25.8090    0.0840  110.7840 N.am    1  UNL1       -0.2997
     72 C          24.9180    0.3180  111.9330 C.3     1  UNL1        0.1340
     73 C          23.5870    0.8010  111.3340 C.2     1  UNL1        0.2399
     74 O          23.5970    1.3700  110.2330 O.2     1  UNL1       -0.2734
     75 C          25.4820    1.3780  112.8910 C.3     1  UNL1        0.1193
     76 O          26.1390    0.6880  113.9680 O.3     1  UNL1       -0.4610
     77 N          22.4040    0.6380  112.0200 N.am    1  UNL1       -0.2883
     78 C          22.1440    0.0780  113.3700 C.3     1  UNL1        0.1025
     79 C          22.1750   -1.4840  113.3900 C.2     1  UNL1        0.2365
     80 O          22.5970   -2.0950  112.4040 O.2     1  UNL1       -0.2735
     81 C          20.7560    0.6600  113.6860 C.3     1  UNL1       -0.0243
     82 C          20.0650    0.6950  112.3310 C.3     1  UNL1       -0.0350
     83 C          21.1790    1.1150  111.3980 C.3     1  UNL1        0.0156
     84 N          21.8370   -2.1700  114.5650 N.am    1  UNL1       -0.2917
     85 C          21.4290   -1.5360  115.8190 C.3     1  UNL1        0.0040
     86 C          21.9850   -3.6620  114.6130 C.3     1  UNL1        0.0991
     87 C          21.2600   -4.4110  113.5000 C.3     1  UNL1       -0.0379
     88 C          23.4840   -4.0710  114.7250 C.2     1  UNL1        0.2339
     89 O          23.9100   -5.2020  114.5280 O.2     1  UNL1       -0.2738
     90 N          24.2500   -3.0470  115.2110 N.am    1  UNL1       -0.3027
     91 C          25.7030   -2.9110  115.2850 C.3     1  UNL1        0.0968
     92 C          25.8310   -1.4420  115.7820 C.2     1  UNL1        0.2363
     93 O          24.8020   -0.7740  115.9940 O.2     1  UNL1       -0.2736
     94 C          26.3070   -3.1370  113.9050 C.3     1  UNL1       -0.0381
     95 C          26.7050    1.4500  114.9390 C.2     1  UNL1        0.3279
     96 N          27.0580   -0.8590  115.9450 N.am    1  UNL1       -0.2862
     97 O          26.7800    2.6730  114.9020 O.2     1  UNL1       -0.2487
     98 C          27.1460    0.5960  116.1500 C.3     1  UNL1        0.1233
     99 C          28.6110    0.8390  116.5180 C.3     1  UNL1       -0.0199
    100 C          28.3480   -1.5000  116.1110 C.3     1  UNL1        0.0182
    101 C          30.6900   -0.6300  116.5650 C.3     1  UNL1       -0.0609
    102 C          29.3450   -0.3640  115.9140 C.3     1  UNL1       -0.0258
@<TRIPOS>BOND
     1    17    69    1
     2     6    57    1
     3    15    67    1
     4    69    67   ar
     5    69    70   ar
     6     4    55    1
     7    37    58    1
     8    67    65   ar
     9    10    70    1
    10     2    53    1
    11    57    58    1
    12    57    56    2
    13    70    68   ar
    14    59    51    2
    15    36    58    1
    16    58    35    1
    17    55    56    1
    18    55    54    2
    19    18    64    1
    20    56     5    1
    21    53    54    1
    22    53    52    2
    23    65    64    1
    24    65    66   ar
    25    54     3    1
    26    51    52    1
    27    51    60   am
    28    12    61    1
    29    68    66   ar
    30    68    16    1
    31    64    61    1
    32    64    13    1
    33    52     1    1
    34    66    14    1
    35    61    60    1
    36    61    62    1
    37    60    11    1
    38    20    71    1
    39    74    73    2
    40    23    83    1
    41    71    62   am
    42    71    72    1
    43    62    63    2
    44    27    83    1
    45    73    72    1
    46    73    77   am
    47    83    77    1
    48    83    82    1
    49    72    21    1
    50    72    75    1
    51    77    78    1
    52    29    82    1
    53    26    82    1
    54    82    81    1
    55    22    75    1
    56    80    79    2
    57    40    87    1
    58    75    19    1
    59    75    76    1
    60    30    94    1
    61    41    87    1
    62    78    79    1
    63    78    81    1
    64    78    24    1
    65    79    84   am
    66    87    38    1
    67    87    86    1
    68    33    94    1
    69    81    25    1
    70    81    28    1
    71    34    94    1
    72    94    91    1
    73    76    95    1
    74    89    88    2
    75    84    86    1
    76    84    85    1
    77    86    88    1
    78    86    39    1
    79    88    90   am
    80    42   102    1
    81    97    95    2
    82    95    98    1
    83    90    91    1
    84    90    31    1
    85    91    92    1
    86    91    32    1
    87    45   100    1
    88    92    96   am
    89    92    93    2
    90    85     8    1
    91    85     7    1
    92    85     9    1
    93   102   100    1
    94   102    99    1
    95   102   101    1
    96    96   100    1
    97    96    98    1
    98   100    49    1
    99    47   101    1
   100    48    99    1
   101    98    99    1
   102    98    43    1
   103    50   101    1
   104    99    44    1
   105   101    46    1
