@<TRIPOS>MOLECULE
143.22110
 102 105 0 0 0
SMALL
GASTEIGER

@<TRIPOS>ATOM
      1 H          27.5750   -7.1110  114.0610 H       1  UNL1        0.0669
      2 H          26.4530   -9.9300  113.5170 H       1  UNL1        0.0619
      3 H          29.2140   -8.9370  114.5730 H       1  UNL1        0.0618
      4 H          28.0460  -11.7190  113.9780 H       1  UNL1        0.0617
      5 H          30.7950  -10.7530  115.0810 H       1  UNL1        0.0614
      6 H          29.6310  -13.5260  114.4430 H       1  UNL1        0.0569
      7 H          22.7220    2.7360  113.1860 H       1  UNL1        0.0429
      8 H          23.6330    3.0070  114.6700 H       1  UNL1        0.0429
      9 H          21.8980    3.4070  114.6180 H       1  UNL1        0.0429
     10 H          18.0410   -4.2820  112.5070 H       1  UNL1        0.0618
     11 H          26.0470   -5.4860  113.6800 H       1  UNL1        0.1498
     12 H          23.7110   -5.9750  112.0920 H       1  UNL1        0.0598
     13 H          23.2440   -5.2220  115.0530 H       1  UNL1        0.0336
     14 H          21.5520   -3.5220  114.8480 H       1  UNL1        0.0620
     15 H          21.2690   -7.1130  112.4630 H       1  UNL1        0.0620
     16 H          19.3170   -2.8470  114.0860 H       1  UNL1        0.0618
     17 H          19.0250   -6.4130  111.7030 H       1  UNL1        0.0618
     18 H          22.9420   -6.8250  114.4330 H       1  UNL1        0.0336
     19 H          24.6640   -0.4920  110.6760 H       1  UNL1        0.0721
     20 H          22.7330   -3.9800  111.4460 H       1  UNL1        0.1496
     21 H          23.6130   -1.4910  112.6470 H       1  UNL1        0.0629
     22 H          23.9550   -1.6630  109.6150 H       1  UNL1        0.0721
     23 H          19.3210   -1.4410  111.4770 H       1  UNL1        0.0465
     24 H          22.6570    0.8770  112.0470 H       1  UNL1        0.0597
     25 H          20.7450    2.0800  111.2680 H       1  UNL1        0.0288
     26 H          18.5030    1.1630  111.5590 H       1  UNL1        0.0281
     27 H          19.8460   -0.3170  110.2020 H       1  UNL1        0.0465
     28 H          20.4090    2.2870  112.9960 H       1  UNL1        0.0288
     29 H          18.9870    0.3350  113.0530 H       1  UNL1        0.0281
     30 H          25.2530   -2.0970  115.6420 H       1  UNL1        0.0252
     31 H          24.2330    0.6460  114.5310 H       1  UNL1        0.1495
     32 H          26.8060    0.5590  115.5800 H       1  UNL1        0.0592
     33 H          26.2630   -1.4180  116.9100 H       1  UNL1        0.0252
     34 H          27.0080   -2.0830  115.4550 H       1  UNL1        0.0252
     35 H          32.3500  -12.5440  115.5810 H       1  UNL1        0.0272
     36 H          32.1570  -13.8830  114.4340 H       1  UNL1        0.0272
     37 H          31.5080  -14.0230  116.0790 H       1  UNL1        0.0272
     38 H          21.6320    0.5670  118.0940 H       1  UNL1        0.0252
     39 H          22.5840    2.2030  116.6830 H       1  UNL1        0.0594
     40 H          21.6190   -0.6760  116.8610 H       1  UNL1        0.0252
     41 H          20.5160    0.7130  116.7250 H       1  UNL1        0.0252
     42 H          29.6160   -2.1080  112.3610 H       1  UNL1        0.0314
     43 H          26.6130   -0.0630  111.0310 H       1  UNL1        0.0616
     44 H          28.8600    0.4680  110.9130 H       1  UNL1        0.0292
     45 H          28.6730   -1.3220  114.3590 H       1  UNL1        0.0467
     46 H          30.8120    0.7150  112.4120 H       1  UNL1        0.0233
     47 H          31.4130   -0.6850  113.3140 H       1  UNL1        0.0233
     48 H          28.9710   -1.1670  110.2360 H       1  UNL1        0.0292
     49 H          28.8440    0.3870  113.9190 H       1  UNL1        0.0467
     50 H          31.4720   -0.6790  111.5420 H       1  UNL1        0.0233
     51 C          25.5190   -7.4780  113.3330 C.2     1  UNL1        0.2375
     52 C          26.8760   -7.8850  113.7730 C.2     1  UNL1        0.0001
     53 C          27.1920   -9.1870  113.8160 C.2     1  UNL1       -0.0569
     54 C          28.4800   -9.6760  114.2580 C.2     1  UNL1       -0.0616
     55 C          28.7820  -10.9820  114.2950 C.2     1  UNL1       -0.0621
     56 C          30.0600  -11.4820  114.7480 C.2     1  UNL1       -0.0659
     57 C          30.3600  -12.7900  114.7750 C.2     1  UNL1       -0.0871
     58 C          31.6690  -13.3330  115.2440 C.3     1  UNL1       -0.0465
     59 O          24.6710   -8.2790  112.9610 O.2     1  UNL1       -0.2708
     60 N          25.3100   -6.1280  113.4070 N.am    1  UNL1       -0.3002
     61 C          24.0250   -5.5340  113.0460 C.3     1  UNL1        0.1036
     62 C          24.2550   -4.0240  112.8570 C.2     1  UNL1        0.2344
     63 O          25.0850   -3.3970  113.5140 O.2     1  UNL1       -0.2738
     64 C          22.9680   -5.7670  114.1400 C.3     1  UNL1       -0.0006
     65 C          21.5730   -5.3720  113.7150 C.ar    1  UNL1       -0.0451
     66 C          21.0050   -4.1750  114.1690 C.ar    1  UNL1       -0.0585
     67 C          20.8470   -6.1770  112.8270 C.ar    1  UNL1       -0.0585
     68 C          19.7370   -3.7850  113.7360 C.ar    1  UNL1       -0.0615
     69 C          19.5790   -5.7860  112.3960 C.ar    1  UNL1       -0.0615
     70 C          19.0250   -4.5890  112.8490 C.ar    1  UNL1       -0.0617
     71 N          23.4360   -3.4280  111.9340 N.am    1  UNL1       -0.2997
     72 C          23.4170   -1.9820  111.6960 C.3     1  UNL1        0.1340
     73 C          21.9830   -1.7080  111.2090 C.2     1  UNL1        0.2399
     74 O          21.4770   -2.4800  110.3810 O.2     1  UNL1       -0.2734
     75 C          24.4200   -1.5530  110.6020 C.3     1  UNL1        0.1193
     76 O          25.6050   -2.3930  110.5360 O.3     1  UNL1       -0.4610
     77 N          21.2610   -0.6380  111.6850 N.am    1  UNL1       -0.2883
     78 C          21.7020    0.5400  112.4620 C.3     1  UNL1        0.1025
     79 C          21.8920    0.3000  113.9910 C.2     1  UNL1        0.2365
     80 O          21.7250   -0.8250  114.4640 O.2     1  UNL1       -0.2735
     81 C          20.5630    1.5460  112.2100 C.3     1  UNL1       -0.0243
     82 C          19.3330    0.6620  112.0650 C.3     1  UNL1       -0.0350
     83 C          19.8690   -0.5150  111.2800 C.3     1  UNL1        0.0156
     84 N          22.3200    1.3740  114.7880 N.am    1  UNL1       -0.2917
     85 C          22.6600    2.7020  114.2730 C.3     1  UNL1        0.0040
     86 C          22.5870    1.1910  116.2550 C.3     1  UNL1        0.0991
     87 C          21.5250    0.4030  117.0160 C.3     1  UNL1       -0.0379
     88 C          24.0130    0.6330  116.5370 C.2     1  UNL1        0.2339
     89 O          24.4530    0.4270  117.6620 O.2     1  UNL1       -0.2738
     90 N          24.7320    0.4490  115.3930 N.am    1  UNL1       -0.3027
     91 C          26.0540   -0.1310  115.1860 C.3     1  UNL1        0.0968
     92 C          26.1270   -0.1550  113.6350 C.2     1  UNL1        0.2363
     93 O          25.1610    0.2510  112.9660 O.2     1  UNL1       -0.2736
     94 C          26.1570   -1.5070  115.8230 C.3     1  UNL1       -0.0381
     95 C          26.7590   -2.2290  111.2250 C.2     1  UNL1        0.3279
     96 N          27.2580   -0.5650  112.9910 N.am    1  UNL1       -0.2862
     97 O          27.4430   -3.2140  111.5080 O.2     1  UNL1       -0.2487
     98 C          27.2300   -0.8010  111.5460 C.3     1  UNL1        0.1233
     99 C          28.6910   -0.5960  111.1270 C.3     1  UNL1       -0.0199
    100 C          28.6060   -0.6100  113.5340 C.3     1  UNL1        0.0182
    101 C          30.8770   -0.3780  112.4100 C.3     1  UNL1       -0.0609
    102 C          29.4990   -1.0170  112.3620 C.3     1  UNL1       -0.0258
@<TRIPOS>BOND
     1    22    75    1
     2    27    83    1
     3    48    99    1
     4    74    73    2
     5    76    75    1
     6    76    95    1
     7    75    19    1
     8    75    72    1
     9    44    99    1
    10    43    98    1
    11    99    98    1
    12    99   102    1
    13    73    77   am
    14    73    72    1
    15    95    97    2
    16    95    98    1
    17    25    81    1
    18    83    23    1
    19    83    77    1
    20    83    82    1
    21    20    71    1
    22    50   101    1
    23    98    96    1
    24    26    82    1
    25    77    78    1
    26    72    71    1
    27    72    21    1
    28    17    69    1
    29    71    62   am
    30    24    78    1
    31    82    81    1
    32    82    29    1
    33    12    61    1
    34    81    78    1
    35    81    28    1
    36    42   102    1
    37   102   101    1
    38   102   100    1
    39    69    67   ar
    40    69    70   ar
    41   101    46    1
    42   101    47    1
    43    78    79    1
    44    15    67    1
    45    10    70    1
    46    67    65   ar
    47    70    68   ar
    48    62    61    1
    49    62    63    2
    50    59    51    2
    51    93    92    2
    52    96   100    1
    53    96    92   am
    54    61    60    1
    55    61    64    1
    56     7    85    1
    57    51    60   am
    58    51    52    1
    59    60    11    1
    60     2    53    1
    61   100    49    1
    62   100    45    1
    63    92    91    1
    64    65    64    1
    65    65    66   ar
    66    68    16    1
    67    68    66   ar
    68    52    53    2
    69    52     1    1
    70    53    54    1
    71     4    55    1
    72    79    80    2
    73    79    84   am
    74    64    18    1
    75    64    13    1
    76    66    14    1
    77    54    55    2
    78    54     3    1
    79    85     9    1
    80    85     8    1
    81    85    84    1
    82    55    56    1
    83    36    58    1
    84     6    57    1
    85    31    90    1
    86    56    57    2
    87    56     5    1
    88    57    58    1
    89    84    86    1
    90    91    90    1
    91    91    32    1
    92    91    94    1
    93    58    35    1
    94    58    37    1
    95    90    88   am
    96    34    94    1
    97    30    94    1
    98    94    33    1
    99    86    88    1
   100    86    39    1
   101    86    87    1
   102    88    89    2
   103    41    87    1
   104    40    87    1
   105    87    38    1
