@<TRIPOS>MOLECULE
145.83082
 102 105 0 0 0
SMALL
GASTEIGER

@<TRIPOS>ATOM
      1 H          30.0330   -6.7760  118.3400 H       1  UNL1        0.0669
      2 H          30.9470   -6.0870  115.4810 H       1  UNL1        0.0619
      3 H          28.1820   -6.8370  116.7210 H       1  UNL1        0.0618
      4 H          29.0900   -6.2180  113.8500 H       1  UNL1        0.0617
      5 H          26.3380   -6.9320  115.1310 H       1  UNL1        0.0614
      6 H          27.2300   -6.3700  112.2440 H       1  UNL1        0.0569
      7 H          31.5720   -5.7750  126.4910 H       1  UNL1        0.0429
      8 H          31.1930   -7.2160  125.4870 H       1  UNL1        0.0429
      9 H          32.1680   -5.9000  124.8230 H       1  UNL1        0.0429
     10 H          38.9480   -3.8510  121.9220 H       1  UNL1        0.0618
     11 H          31.6730   -6.7630  119.8280 H       1  UNL1        0.1498
     12 H          34.4730   -6.7040  119.1010 H       1  UNL1        0.0598
     13 H          33.2380   -4.3460  120.6820 H       1  UNL1        0.0336
     14 H          34.7180   -4.1040  122.5630 H       1  UNL1        0.0620
     15 H          36.3600   -4.7530  118.6170 H       1  UNL1        0.0620
     16 H          36.9840   -3.7170  123.4340 H       1  UNL1        0.0618
     17 H          38.6280   -4.3620  119.5170 H       1  UNL1        0.0618
     18 H          33.8540   -4.2010  119.0560 H       1  UNL1        0.0336
     19 H          33.5980   -9.4500  122.7900 H       1  UNL1        0.0721
     20 H          35.7860   -7.1850  121.1180 H       1  UNL1        0.1496
     21 H          34.3280   -7.2970  123.5450 H       1  UNL1        0.0629
     22 H          34.6940   -9.6400  124.1800 H       1  UNL1        0.0721
     23 H          38.3100   -6.0720  124.7000 H       1  UNL1        0.0465
     24 H          35.3360   -8.5350  125.9200 H       1  UNL1        0.0597
     25 H          36.8620   -8.1230  127.6140 H       1  UNL1        0.0288
     26 H          38.4200   -6.2840  127.4080 H       1  UNL1        0.0281
     27 H          38.5380   -7.6870  125.4170 H       1  UNL1        0.0465
     28 H          35.8460   -6.7300  128.0260 H       1  UNL1        0.0288
     29 H          37.1820   -5.2480  126.6690 H       1  UNL1        0.0281
     30 H          30.9790  -12.2240  126.1780 H       1  UNL1        0.0252
     31 H          31.9030   -9.4870  125.3760 H       1  UNL1        0.1495
     32 H          33.8940  -11.6230  125.4340 H       1  UNL1        0.0592
     33 H          32.3820  -12.4150  127.2350 H       1  UNL1        0.0252
     34 H          32.2040  -13.4450  125.8030 H       1  UNL1        0.0252
     35 H          24.5020   -7.0560  113.5650 H       1  UNL1        0.0272
     36 H          25.0490   -7.6690  111.9940 H       1  UNL1        0.0272
     37 H          24.7240   -5.9370  112.2080 H       1  UNL1        0.0272
     38 H          31.6940   -8.7990  128.9240 H       1  UNL1        0.0252
     39 H          33.7980   -7.8550  128.0730 H       1  UNL1        0.0594
     40 H          30.8460   -8.3760  127.4400 H       1  UNL1        0.0252
     41 H          31.4760   -7.0960  128.4960 H       1  UNL1        0.0252
     42 H          34.4700  -12.0650  120.3440 H       1  UNL1        0.0314
     43 H          34.7080  -12.9470  124.0590 H       1  UNL1        0.0616
     44 H          34.2860  -14.4410  122.2640 H       1  UNL1        0.0292
     45 H          32.3910  -11.2870  121.1330 H       1  UNL1        0.0467
     46 H          32.8790  -14.6870  120.2190 H       1  UNL1        0.0233
     47 H          32.8460  -13.3940  119.0090 H       1  UNL1        0.0233
     48 H          35.7550  -13.6670  121.6400 H       1  UNL1        0.0292
     49 H          31.8460  -12.9020  121.6380 H       1  UNL1        0.0467
     50 H          34.3370  -14.3100  119.2890 H       1  UNL1        0.0233
     51 C          32.1260   -6.2640  117.8590 C.2     1  UNL1        0.2375
     52 C          30.6990   -6.5000  117.5320 C.2     1  UNL1        0.0001
     53 C          30.2540   -6.3660  116.2740 C.2     1  UNL1       -0.0569
     54 C          28.8690   -6.5790  115.9170 C.2     1  UNL1       -0.0616
     55 C          28.4100   -6.4740  114.6610 C.2     1  UNL1       -0.0621
     56 C          27.0220   -6.6910  114.3190 C.2     1  UNL1       -0.0659
     57 C          26.5570   -6.6080  113.0640 C.2     1  UNL1       -0.0871
     58 C          25.1260   -6.8310  112.6940 C.3     1  UNL1       -0.0465
     59 O          32.9590   -5.9190  117.0320 O.2     1  UNL1       -0.2708
     60 N          32.3980   -6.4640  119.1820 N.am    1  UNL1       -0.3002
     61 C          33.7250   -6.2550  119.7650 C.3     1  UNL1        0.1036
     62 C          33.7010   -7.0080  121.1070 C.2     1  UNL1        0.2344
     63 O          32.6470   -7.2090  121.7180 O.2     1  UNL1       -0.2738
     64 C          33.9900   -4.7570  119.9930 C.3     1  UNL1       -0.0006
     65 C          35.3710   -4.4560  120.5220 C.ar    1  UNL1       -0.0451
     66 C          35.5620   -4.1520  121.8780 C.ar    1  UNL1       -0.0585
     67 C          36.4840   -4.5230  119.6740 C.ar    1  UNL1       -0.0585
     68 C          36.8450   -3.9330  122.3780 C.ar    1  UNL1       -0.0615
     69 C          37.7670   -4.3010  120.1770 C.ar    1  UNL1       -0.0615
     70 C          37.9470   -4.0100  121.5290 C.ar    1  UNL1       -0.0617
     71 N          34.9180   -7.3990  121.6060 N.am    1  UNL1       -0.2997
     72 C          35.0410   -7.8910  122.9740 C.3     1  UNL1        0.1340
     73 C          36.4490   -7.5880  123.5150 C.2     1  UNL1        0.2399
     74 O          37.4170   -7.5740  122.7480 O.2     1  UNL1       -0.2734
     75 C          34.6320   -9.3540  123.1290 C.3     1  UNL1        0.1193
     76 O          35.4280  -10.2510  122.3470 O.3     1  UNL1       -0.4610
     77 N          36.5880   -7.2820  124.8560 N.am    1  UNL1       -0.2883
     78 C          35.6280   -7.4890  125.9570 C.3     1  UNL1        0.1025
     79 C          34.3780   -6.5820  125.8540 C.2     1  UNL1        0.2365
     80 O          34.4580   -5.4540  125.3600 O.2     1  UNL1       -0.2735
     81 C          36.4310   -7.1930  127.2260 C.3     1  UNL1       -0.0243
     82 C          37.5510   -6.2780  126.7440 C.3     1  UNL1       -0.0350
     83 C          37.8670   -6.8220  125.3630 C.3     1  UNL1        0.0156
     84 N          33.1460   -7.1290  126.2420 N.am    1  UNL1       -0.2917
     85 C          31.9490   -6.4670  125.7330 C.3     1  UNL1        0.0040
     86 C          33.0200   -8.1150  127.3460 C.3     1  UNL1        0.0991
     87 C          31.6820   -8.0910  128.0880 C.3     1  UNL1       -0.0379
     88 C          33.3140   -9.5630  126.9120 C.2     1  UNL1        0.2339
     89 O          34.1170  -10.2560  127.5350 O.2     1  UNL1       -0.2738
     90 N          32.6090  -10.0510  125.8400 N.am    1  UNL1       -0.3027
     91 C          32.8250  -11.4150  125.3540 C.3     1  UNL1        0.0968
     92 C          32.3420  -11.5000  123.8950 C.2     1  UNL1        0.2363
     93 O          31.2170  -11.0870  123.5990 O.2     1  UNL1       -0.2736
     94 C          32.0560  -12.4320  126.1900 C.3     1  UNL1       -0.0381
     95 C          35.7360  -11.4310  122.9450 C.2     1  UNL1        0.3279
     96 N          33.1980  -12.0020  122.9350 N.am    1  UNL1       -0.2862
     97 O          36.9000  -11.7300  123.1970 O.2     1  UNL1       -0.2487
     98 C          34.5860  -12.4610  123.0860 C.3     1  UNL1        0.1233
     99 C          34.7220  -13.4830  121.9510 C.3     1  UNL1       -0.0199
    100 C          32.7120  -12.2340  121.5800 C.3     1  UNL1        0.0182
    101 C          33.4620  -13.8710  119.7780 C.3     1  UNL1       -0.0609
    102 C          33.8870  -12.8590  120.8280 C.3     1  UNL1       -0.0258
@<TRIPOS>BOND
     1    36    58    1
     2    37    58    1
     3     6    57    1
     4    58    57    1
     5    58    35    1
     6    57    56    2
     7     4    55    1
     8    56    55    1
     9    56     5    1
    10    55    54    2
    11     2    53    1
    12    54    53    1
    13    54     3    1
    14    53    52    2
    15    59    51    2
    16    52    51    1
    17    52     1    1
    18    51    60   am
    19    15    67    1
    20    47   101    1
    21    18    64    1
    22    12    61    1
    23    60    61    1
    24    60    11    1
    25    50   101    1
    26    17    69    1
    27    67    69   ar
    28    67    65   ar
    29    61    64    1
    30    61    62    1
    31   101    46    1
    32   101   102    1
    33    64    65    1
    34    64    13    1
    35    69    70   ar
    36    42   102    1
    37    65    66   ar
    38   102   100    1
    39   102    99    1
    40    62    71   am
    41    62    63    2
    42    20    71    1
    43    45   100    1
    44    70    10    1
    45    70    68   ar
    46   100    49    1
    47   100    96    1
    48    71    72    1
    49    48    99    1
    50    66    68   ar
    51    66    14    1
    52    99    44    1
    53    99    98    1
    54    76    95    1
    55    76    75    1
    56    68    16    1
    57    74    73    2
    58    19    75    1
    59    96    98    1
    60    96    92   am
    61    95    98    1
    62    95    97    2
    63    72    75    1
    64    72    73    1
    65    72    21    1
    66    98    43    1
    67    75    22    1
    68    73    77   am
    69    93    92    2
    70    92    91    1
    71    23    83    1
    72     9    85    1
    73    77    83    1
    74    77    78    1
    75    91    32    1
    76    91    90    1
    77    91    94    1
    78    80    79    2
    79    83    27    1
    80    83    82    1
    81    31    90    1
    82     8    85    1
    83    85    84    1
    84    85     7    1
    85    34    94    1
    86    90    88   am
    87    79    78    1
    88    79    84   am
    89    24    78    1
    90    78    81    1
    91    30    94    1
    92    94    33    1
    93    84    86    1
    94    29    82    1
    95    82    81    1
    96    82    26    1
    97    88    86    1
    98    88    89    2
    99    81    25    1
   100    81    28    1
   101    86    39    1
   102    86    87    1
   103    40    87    1
   104    87    41    1
   105    87    38    1
