@<TRIPOS>MOLECULE
126.02610
 102 105 0 0 0
SMALL
GASTEIGER

@<TRIPOS>ATOM
      1 H          35.9080   -2.6370  118.4450 H       1  UNL1        0.0669
      2 H          38.2100   -0.9110  119.5470 H       1  UNL1        0.0619
      3 H          38.0430   -3.8850  118.6150 H       1  UNL1        0.0618
      4 H          40.3050   -2.1750  119.8050 H       1  UNL1        0.0617
      5 H          40.1340   -5.1340  118.8400 H       1  UNL1        0.0614
      6 H          42.3870   -3.4480  120.0770 H       1  UNL1        0.0569
      7 H          23.6560    2.6510  122.9190 H       1  UNL1        0.0429
      8 H          24.7100    3.5850  124.0030 H       1  UNL1        0.0429
      9 H          24.5070    1.8230  124.2300 H       1  UNL1        0.0429
     10 H          30.1750    5.6400  118.5040 H       1  UNL1        0.0618
     11 H          33.9270   -1.5850  118.5220 H       1  UNL1        0.1498
     12 H          33.6420    0.9730  119.8360 H       1  UNL1        0.0598
     13 H          32.9750    0.7610  116.8280 H       1  UNL1        0.0336
     14 H          30.8860    1.8800  116.5640 H       1  UNL1        0.0620
     15 H          33.8310    3.5250  119.2610 H       1  UNL1        0.0620
     16 H          29.4460    3.8470  116.9540 H       1  UNL1        0.0618
     17 H          32.3670    5.4760  119.6480 H       1  UNL1        0.0618
     18 H          34.3380    1.6620  117.4480 H       1  UNL1        0.0336
     19 H          29.7220   -0.3250  122.3920 H       1  UNL1        0.0721
     20 H          31.3390    1.4440  120.2060 H       1  UNL1        0.1496
     21 H          29.3690   -0.5070  119.3650 H       1  UNL1        0.0629
     22 H          30.6960   -1.4820  121.4570 H       1  UNL1        0.0721
     23 H          26.6780   -0.4910  119.7010 H       1  UNL1        0.0465
     24 H          27.4800    3.4530  120.4280 H       1  UNL1        0.0597
     25 H          27.0080    2.9290  118.1170 H       1  UNL1        0.0288
     26 H          25.6420    0.9650  117.5620 H       1  UNL1        0.0281
     27 H          27.6980    0.2050  118.4170 H       1  UNL1        0.0465
     28 H          25.3930    3.3520  118.6990 H       1  UNL1        0.0288
     29 H          24.8870    0.9790  119.1650 H       1  UNL1        0.0281
     30 H          23.5190   -1.5010  123.3600 H       1  UNL1        0.0252
     31 H          25.3070    0.2280  122.2640 H       1  UNL1        0.1495
     32 H          26.4970   -2.1700  123.5810 H       1  UNL1        0.0592
     33 H          24.4720   -1.5510  124.8470 H       1  UNL1        0.0252
     34 H          24.1850   -3.0410  123.9230 H       1  UNL1        0.0252
     35 H          42.1880   -6.3870  119.0860 H       1  UNL1        0.0272
     36 H          43.0870   -5.8590  120.5210 H       1  UNL1        0.0272
     37 H          43.6120   -5.3460  118.9050 H       1  UNL1        0.0272
     38 H          28.3090    2.3550  124.9440 H       1  UNL1        0.0252
     39 H          27.8020    2.0390  122.6230 H       1  UNL1        0.0594
     40 H          26.6050    2.4740  125.3720 H       1  UNL1        0.0252
     41 H          27.3570    3.7410  124.3830 H       1  UNL1        0.0252
     42 H          28.3840   -4.0680  119.3500 H       1  UNL1        0.0314
     43 H          27.1850   -4.0850  122.9780 H       1  UNL1        0.0616
     44 H          27.2180   -5.9240  121.4840 H       1  UNL1        0.0292
     45 H          26.2370   -3.0630  119.1150 H       1  UNL1        0.0467
     46 H          26.5730   -6.5400  119.1450 H       1  UNL1        0.0233
     47 H          27.1320   -5.5480  117.7880 H       1  UNL1        0.0233
     48 H          28.9100   -5.4290  121.2960 H       1  UNL1        0.0292
     49 H          25.3900   -4.4430  119.8510 H       1  UNL1        0.0467
     50 H          28.2980   -6.4780  118.7470 H       1  UNL1        0.0233
     51 C          35.6510   -0.5140  119.0020 C.2     1  UNL1        0.2375
     52 C          36.4240   -1.7670  118.8290 C.2     1  UNL1        0.0001
     53 C          37.7240   -1.8050  119.1560 C.2     1  UNL1       -0.0569
     54 C          38.5280   -3.0010  119.0250 C.2     1  UNL1       -0.0616
     55 C          39.8170   -3.0550  119.3900 C.2     1  UNL1       -0.0621
     56 C          40.6140   -4.2550  119.2640 C.2     1  UNL1       -0.0659
     57 C          41.8970   -4.3200  119.6490 C.2     1  UNL1       -0.0871
     58 C          42.7370   -5.5500  119.5310 C.3     1  UNL1       -0.0465
     59 O          36.1580    0.5500  119.3310 O.2     1  UNL1       -0.2708
     60 N          34.3140   -0.6790  118.7670 N.am    1  UNL1       -0.3002
     61 C          33.3570    0.4130  118.9370 C.3     1  UNL1        0.1036
     62 C          31.9860   -0.2460  119.1740 C.2     1  UNL1        0.2344
     63 O          31.7050   -1.3600  118.7300 O.2     1  UNL1       -0.2738
     64 C          33.3230    1.3270  117.7020 C.3     1  UNL1       -0.0006
     65 C          32.4610    2.5540  117.8910 C.ar    1  UNL1       -0.0451
     66 C          31.2230    2.6620  117.2410 C.ar    1  UNL1       -0.0585
     67 C          32.8690    3.5810  118.7530 C.ar    1  UNL1       -0.0585
     68 C          30.4040    3.7690  117.4600 C.ar    1  UNL1       -0.0615
     69 C          32.0470    4.6860  118.9730 C.ar    1  UNL1       -0.0615
     70 C          30.8140    4.7790  118.3290 C.ar    1  UNL1       -0.0617
     71 N          31.0980    0.5000  119.9050 N.am    1  UNL1       -0.2997
     72 C          29.7520    0.0290  120.2350 C.3     1  UNL1        0.1340
     73 C          28.9270    1.3010  120.5320 C.2     1  UNL1        0.2399
     74 O          29.4750    2.2600  121.0880 O.2     1  UNL1       -0.2734
     75 C          29.7690   -0.8950  121.4570 C.3     1  UNL1        0.1193
     76 O          28.6350   -1.7770  121.4000 O.3     1  UNL1       -0.4610
     77 N          27.5860    1.3420  120.1800 N.am    1  UNL1       -0.2883
     78 C          26.8140    2.6000  120.2610 C.3     1  UNL1        0.1025
     79 C          25.6360    2.7500  121.2920 C.2     1  UNL1        0.2365
     80 O          24.6000    3.3240  120.9230 O.2     1  UNL1       -0.2735
     81 C          26.2250    2.6560  118.8370 C.3     1  UNL1       -0.0243
     82 C          25.8080    1.2040  118.6160 C.3     1  UNL1       -0.0350
     83 C          26.9790    0.4340  119.2090 C.3     1  UNL1        0.0156
     84 N          25.7530    2.4040  122.6330 N.am    1  UNL1       -0.2917
     85 C          24.5870    2.6260  123.4920 C.3     1  UNL1        0.0040
     86 C          26.9690    1.8970  123.2940 C.3     1  UNL1        0.0991
     87 C          27.3260    2.6620  124.5700 C.3     1  UNL1       -0.0379
     88 C          26.8900    0.3780  123.5810 C.2     1  UNL1        0.2339
     89 O          27.6990   -0.2040  124.3000 O.2     1  UNL1       -0.2738
     90 N          25.9030   -0.2930  122.9000 N.am    1  UNL1       -0.3027
     91 C          25.6630   -1.7220  123.0420 C.3     1  UNL1        0.0968
     92 C          25.5130   -2.3000  121.6230 C.2     1  UNL1        0.2363
     93 O          24.6460   -1.8600  120.8610 O.2     1  UNL1       -0.2736
     94 C          24.3880   -1.9680  123.8370 C.3     1  UNL1       -0.0381
     95 C          28.7710   -2.9440  122.0920 C.2     1  UNL1        0.3279
     96 N          26.4120   -3.2540  121.2030 N.am    1  UNL1       -0.2862
     97 O          29.7700   -3.2760  122.7200 O.2     1  UNL1       -0.2487
     98 C          27.5240   -3.8390  121.9670 C.3     1  UNL1        0.1233
     99 C          27.8730   -5.1010  121.1730 C.3     1  UNL1       -0.0199
    100 C          26.3080   -3.8450  119.8780 C.3     1  UNL1        0.0182
    101 C          27.3800   -5.8840  118.8010 C.3     1  UNL1       -0.0609
    102 C          27.5660   -4.6960  119.7270 C.3     1  UNL1       -0.0258
@<TRIPOS>BOND
     1    14    66    1
     2    13    64    1
     3    16    68    1
     4    66    68   ar
     5    66    65   ar
     6    18    64    1
     7    68    70   ar
     8    26    82    1
     9    64    65    1
    10    64    61    1
    11    47   101    1
    12    65    67   ar
    13    25    81    1
    14    70    10    1
    15    70    69   ar
    16    27    83    1
    17     1    52    1
    18    11    60    1
    19     3    54    1
    20    82    81    1
    21    82    29    1
    22    82    83    1
    23    28    81    1
    24    63    62    2
    25    50   101    1
    26    67    69   ar
    27    67    15    1
    28    60    61    1
    29    60    51   am
    30   101    46    1
    31   101   102    1
    32    52    51    1
    33    52    53    2
    34    81    78    1
    35     5    56    1
    36    37    58    1
    37    61    62    1
    38    61    12    1
    39    69    17    1
    40    51    59    2
    41    54    53    1
    42    54    55    2
    43    35    58    1
    44    45   100    1
    45    53     2    1
    46    62    71   am
    47    83    23    1
    48    83    77    1
    49    56    55    1
    50    56    57    2
    51    42   102    1
    52    21    72    1
    53    55     4    1
    54    58    57    1
    55    58    36    1
    56    57     6    1
    57   102   100    1
    58   102    99    1
    59    49   100    1
    60   100    96    1
    61    71    20    1
    62    71    72    1
    63    77    78    1
    64    77    73   am
    65    72    73    1
    66    72    75    1
    67    78    24    1
    68    78    79    1
    69    73    74    2
    70    93    92    2
    71    80    79    2
    72    99    48    1
    73    99    44    1
    74    99    98    1
    75    96    92   am
    76    96    98    1
    77    79    84   am
    78    76    75    1
    79    76    95    1
    80    75    22    1
    81    75    19    1
    82    92    91    1
    83    98    95    1
    84    98    43    1
    85    95    97    2
    86    31    90    1
    87    39    86    1
    88    84    86    1
    89    84    85    1
    90    90    91    1
    91    90    88   am
    92     7    85    1
    93    91    32    1
    94    91    94    1
    95    86    88    1
    96    86    87    1
    97    30    94    1
    98    85     8    1
    99    85     9    1
   100    88    89    2
   101    94    34    1
   102    94    33    1
   103    41    87    1
   104    87    38    1
   105    87    40    1
