@<TRIPOS>MOLECULE
118.43959
 102 105 0 0 0
SMALL
GASTEIGER

@<TRIPOS>ATOM
      1 H          32.2420    4.0670  118.5220 H       1  UNL1        0.0669
      2 H          33.0210    5.2700  121.2530 H       1  UNL1        0.0619
      3 H          34.7000    4.6310  118.7040 H       1  UNL1        0.0618
      4 H          35.3700    5.7980  121.4700 H       1  UNL1        0.0617
      5 H          37.1000    5.1750  118.9550 H       1  UNL1        0.0614
      6 H          37.7300    6.3480  121.7270 H       1  UNL1        0.0569
      7 H          25.3460    1.1790  121.0710 H       1  UNL1        0.0429
      8 H          24.2900   -0.1920  121.4440 H       1  UNL1        0.0429
      9 H          25.8050   -0.4410  120.5270 H       1  UNL1        0.0429
     10 H          27.0730    6.4970  114.7700 H       1  UNL1        0.0618
     11 H          30.1440    3.1690  118.6300 H       1  UNL1        0.1498
     12 H          28.2030    4.3280  120.5270 H       1  UNL1        0.0598
     13 H          26.5490    2.8900  119.3270 H       1  UNL1        0.0336
     14 H          27.3110    5.8040  118.9910 H       1  UNL1        0.0620
     15 H          27.4610    2.4830  116.2300 H       1  UNL1        0.0620
     16 H          27.1060    7.3530  117.0970 H       1  UNL1        0.0618
     17 H          27.2430    4.0580  114.3470 H       1  UNL1        0.0618
     18 H          27.8460    2.0580  118.4860 H       1  UNL1        0.0336
     19 H          31.3490    0.8120  124.1780 H       1  UNL1        0.0721
     20 H          29.5840    3.6120  122.3270 H       1  UNL1        0.1496
     21 H          29.0660    0.7590  123.0760 H       1  UNL1        0.0629
     22 H          31.6850    2.3110  123.2630 H       1  UNL1        0.0721
     23 H          27.3630    3.5770  126.2200 H       1  UNL1        0.0465
     24 H          27.8130   -0.1410  124.5970 H       1  UNL1        0.0597
     25 H          26.6300   -0.1710  126.6240 H       1  UNL1        0.0288
     26 H          25.6510    1.8660  127.5070 H       1  UNL1        0.0281
     27 H          28.0230    2.2270  127.1760 H       1  UNL1        0.0465
     28 H          25.2090    0.0470  125.5830 H       1  UNL1        0.0288
     29 H          25.2720    2.4520  125.8770 H       1  UNL1        0.0281
     30 H          28.8150   -3.5480  119.6800 H       1  UNL1        0.0252
     31 H          27.9560   -0.6890  121.0420 H       1  UNL1        0.1495
     32 H          30.3120   -1.9630  121.8380 H       1  UNL1        0.0592
     33 H          29.2790   -4.1450  121.2760 H       1  UNL1        0.0252
     34 H          30.5250   -3.7670  120.0770 H       1  UNL1        0.0252
     35 H          39.4540    5.7100  119.2240 H       1  UNL1        0.0272
     36 H          39.9790    5.5000  120.9050 H       1  UNL1        0.0272
     37 H          39.6670    7.1270  120.2680 H       1  UNL1        0.0272
     38 H          25.5560   -3.5690  122.7770 H       1  UNL1        0.0252
     39 H          26.2420   -1.6130  124.0540 H       1  UNL1        0.0594
     40 H          25.4200   -2.6330  121.2930 H       1  UNL1        0.0252
     41 H          24.3140   -2.3150  122.6460 H       1  UNL1        0.0252
     42 H          33.3280    1.3730  119.7600 H       1  UNL1        0.0314
     43 H          32.4350   -2.0920  121.0870 H       1  UNL1        0.0616
     44 H          34.0950   -1.5730  119.4560 H       1  UNL1        0.0292
     45 H          31.3360    0.9260  118.5270 H       1  UNL1        0.0467
     46 H          34.4210   -0.2130  117.3700 H       1  UNL1        0.0233
     47 H          33.9820    1.5030  117.3630 H       1  UNL1        0.0233
     48 H          34.6280   -0.4470  120.7200 H       1  UNL1        0.0292
     49 H          31.9810   -0.5740  117.8230 H       1  UNL1        0.0467
     50 H          35.3340    0.9370  118.3600 H       1  UNL1        0.0233
     51 C          30.8050    4.3910  120.1760 C.2     1  UNL1        0.2375
     52 C          32.1400    4.4330  119.5350 C.2     1  UNL1        0.0001
     53 C          33.1790    4.9120  120.2350 C.2     1  UNL1       -0.0569
     54 C          34.5280    4.9790  119.7200 C.2     1  UNL1       -0.0616
     55 C          35.5480    5.4490  120.4540 C.2     1  UNL1       -0.0621
     56 C          36.9070    5.5220  119.9680 C.2     1  UNL1       -0.0659
     57 C          37.9150    5.9970  120.7140 C.2     1  UNL1       -0.0871
     58 C          39.3310    6.0860  120.2450 C.3     1  UNL1       -0.0465
     59 O          30.5640    4.9260  121.2520 O.2     1  UNL1       -0.2708
     60 N          29.8910    3.6400  119.4880 N.am    1  UNL1       -0.3002
     61 C          28.5370    3.4190  120.0120 C.3     1  UNL1        0.1036
     62 C          28.6270    2.2880  121.0570 C.2     1  UNL1        0.2344
     63 O          28.2280    1.1440  120.8500 O.2     1  UNL1       -0.2738
     64 C          27.5490    3.0320  118.8990 C.3     1  UNL1       -0.0006
     65 C          27.4340    4.0210  117.7570 C.ar    1  UNL1       -0.0451
     66 C          27.3140    5.4000  117.9820 C.ar    1  UNL1       -0.0585
     67 C          27.3970    3.5500  116.4360 C.ar    1  UNL1       -0.0585
     68 C          27.1920    6.2860  116.9090 C.ar    1  UNL1       -0.0615
     69 C          27.2710    4.4370  115.3650 C.ar    1  UNL1       -0.0615
     70 C          27.1730    5.8050  115.6020 C.ar    1  UNL1       -0.0617
     71 N          29.2570    2.6480  122.2250 N.am    1  UNL1       -0.2997
     72 C          29.5860    1.6950  123.2800 C.3     1  UNL1        0.1340
     73 C          29.1420    2.2930  124.6170 C.2     1  UNL1        0.2399
     74 O          29.7860    3.2050  125.1430 O.2     1  UNL1       -0.2734
     75 C          31.0870    1.3930  123.2870 C.3     1  UNL1        0.1193
     76 O          31.3640    0.6410  122.0870 O.3     1  UNL1       -0.4610
     77 N          27.9390    1.8630  125.1410 N.am    1  UNL1       -0.2883
     78 C          27.1370    0.7080  124.7120 C.3     1  UNL1        0.1025
     79 C          26.3440    0.9610  123.4000 C.2     1  UNL1        0.2365
     80 O          25.9740    2.1030  123.1090 O.2     1  UNL1       -0.2735
     81 C          26.1670    0.4860  125.8780 C.3     1  UNL1       -0.0243
     82 C          25.9970    1.8820  126.4700 C.3     1  UNL1       -0.0350
     83 C          27.3820    2.4880  126.3260 C.3     1  UNL1        0.0156
     84 N          26.0290   -0.1420  122.5950 N.am    1  UNL1       -0.2917
     85 C          25.3330    0.1190  121.3380 C.3     1  UNL1        0.0040
     86 C          26.3280   -1.5450  122.9640 C.3     1  UNL1        0.0991
     87 C          25.3470   -2.5680  122.3840 C.3     1  UNL1       -0.0379
     88 C          27.7650   -2.0130  122.6300 C.2     1  UNL1        0.2339
     89 O          28.3100   -2.8840  123.3110 O.2     1  UNL1       -0.2738
     90 N          28.3300   -1.5390  121.4740 N.am    1  UNL1       -0.3027
     91 C          29.6270   -2.0080  120.9890 C.3     1  UNL1        0.0968
     92 C          30.1270   -1.1250  119.8220 C.2     1  UNL1        0.2363
     93 O          29.3730   -0.8170  118.8920 O.2     1  UNL1       -0.2736
     94 C          29.5570   -3.4470  120.4800 C.3     1  UNL1       -0.0381
     95 C          32.4210   -0.2070  122.1080 C.2     1  UNL1        0.3279
     96 N          31.4500   -0.7300  119.8170 N.am    1  UNL1       -0.2862
     97 O          33.2070   -0.3240  123.0390 O.2     1  UNL1       -0.2487
     98 C          32.4970   -1.0350  120.8100 C.3     1  UNL1        0.1233
     99 C          33.7930   -0.7100  120.0630 C.3     1  UNL1       -0.0199
    100 C          31.9770    0.0590  118.7180 C.3     1  UNL1        0.0182
    101 C          34.3340    0.6810  117.9960 C.3     1  UNL1       -0.0609
    102 C          33.3830    0.4570  119.1580 C.3     1  UNL1       -0.0258
@<TRIPOS>BOND
     1    17    69    1
     2    10    70    1
     3    69    70   ar
     4    69    67   ar
     5    70    68   ar
     6    15    67    1
     7    67    65   ar
     8    68    16    1
     9    68    66   ar
    10    47   101    1
    11    46   101    1
    12    65    66   ar
    13    65    64    1
    14    49   100    1
    15    66    14    1
    16   101    50    1
    17   101   102    1
    18    18    64    1
    19     1    52    1
    20    45   100    1
    21    11    60    1
    22     3    54    1
    23   100   102    1
    24   100    96    1
    25    93    92    2
    26    64    13    1
    27    64    61    1
    28     5    56    1
    29   102    42    1
    30   102    99    1
    31    35    58    1
    32    44    99    1
    33    60    61    1
    34    60    51   am
    35    52    51    1
    36    52    53    2
    37    30    94    1
    38    54    53    1
    39    54    55    2
    40    96    92   am
    41    96    98    1
    42    92    91    1
    43    56    55    1
    44    56    57    2
    45    61    12    1
    46    61    62    1
    47    99    48    1
    48    99    98    1
    49    34    94    1
    50    51    59    2
    51    53     2    1
    52    58    37    1
    53    58    57    1
    54    58    36    1
    55    55     4    1
    56    94    91    1
    57    94    33    1
    58     9    85    1
    59    57     6    1
    60    98    43    1
    61    98    95    1
    62    63    62    2
    63    91    90    1
    64    91    32    1
    65    31    90    1
    66    62    71   am
    67     7    85    1
    68    40    87    1
    69    85     8    1
    70    85    84    1
    71    90    88   am
    72    76    95    1
    73    76    75    1
    74    95    97    2
    75    71    20    1
    76    71    72    1
    77    87    41    1
    78    87    38    1
    79    87    86    1
    80    84    86    1
    81    84    79   am
    82    88    86    1
    83    88    89    2
    84    86    39    1
    85    21    72    1
    86    80    79    2
    87    22    75    1
    88    72    75    1
    89    72    73    1
    90    75    19    1
    91    79    78    1
    92    24    78    1
    93    73    77   am
    94    73    74    2
    95    78    77    1
    96    78    81    1
    97    77    83    1
    98    28    81    1
    99    29    82    1
   100    81    82    1
   101    81    25    1
   102    23    83    1
   103    83    82    1
   104    83    27    1
   105    82    26    1
