@<TRIPOS>MOLECULE
130.53887
 102 105 0 0 0
SMALL
GASTEIGER

@<TRIPOS>ATOM
      1 H          27.4680   -9.7330  106.8720 H       1  UNL1        0.0669
      2 H          28.1590   -9.5290  103.8770 H       1  UNL1        0.0619
      3 H          28.9510  -11.5550  106.1150 H       1  UNL1        0.0618
      4 H          29.7580  -11.2720  103.1620 H       1  UNL1        0.0617
      5 H          30.4930  -13.3080  105.4070 H       1  UNL1        0.0614
      6 H          31.3680  -13.0010  102.4770 H       1  UNL1        0.0569
      7 H          20.7870   -4.3040  111.2730 H       1  UNL1        0.0429
      8 H          20.4380   -4.1450  112.9890 H       1  UNL1        0.0429
      9 H          21.5100   -5.4540  112.4050 H       1  UNL1        0.0429
     10 H          21.4800   -1.8810  105.2150 H       1  UNL1        0.0618
     11 H          26.4940   -7.8680  107.6370 H       1  UNL1        0.1498
     12 H          25.9500   -5.6110  105.9160 H       1  UNL1        0.0598
     13 H          23.5670   -6.9260  107.3760 H       1  UNL1        0.0336
     14 H          22.4190   -4.9160  108.0910 H       1  UNL1        0.0620
     15 H          23.9590   -5.1920  104.0630 H       1  UNL1        0.0620
     16 H          21.2960   -2.8130  107.5120 H       1  UNL1        0.0618
     17 H          22.8090   -3.0800  103.4970 H       1  UNL1        0.0618
     18 H          23.8580   -7.2040  105.6770 H       1  UNL1        0.0336
     19 H          27.6400   -2.2720  109.9650 H       1  UNL1        0.0721
     20 H          25.3000   -3.7240  107.3120 H       1  UNL1        0.1496
     21 H          25.4530   -3.9550  110.1810 H       1  UNL1        0.0629
     22 H          27.9670   -3.3590  108.5880 H       1  UNL1        0.0721
     23 H          23.5180   -0.0360  108.9810 H       1  UNL1        0.0465
     24 H          24.9950   -2.5320  111.9010 H       1  UNL1        0.0597
     25 H          24.6650   -0.2580  112.6270 H       1  UNL1        0.0288
     26 H          23.1720    1.2250  111.4080 H       1  UNL1        0.0281
     27 H          24.9200    0.5650  109.8970 H       1  UNL1        0.0465
     28 H          23.0490   -0.8730  113.0220 H       1  UNL1        0.0288
     29 H          22.1440   -0.1330  110.9160 H       1  UNL1        0.0281
     30 H          25.0860   -5.8650  111.4320 H       1  UNL1        0.0252
     31 H          25.5420   -3.8270  113.7440 H       1  UNL1        0.1495
     32 H          26.1660   -6.4990  114.2490 H       1  UNL1        0.0592
     33 H          24.6450   -7.2240  112.4560 H       1  UNL1        0.0252
     34 H          26.2110   -7.1930  111.6590 H       1  UNL1        0.0252
     35 H          32.0560  -15.0230  104.7340 H       1  UNL1        0.0272
     36 H          33.2140  -14.3990  103.5460 H       1  UNL1        0.0272
     37 H          31.8740  -15.4360  103.0200 H       1  UNL1        0.0272
     38 H          22.5330   -3.2570  115.9170 H       1  UNL1        0.0252
     39 H          23.7310   -2.7440  113.8870 H       1  UNL1        0.0594
     40 H          21.3210   -4.2070  115.0670 H       1  UNL1        0.0252
     41 H          21.4090   -2.4550  114.8020 H       1  UNL1        0.0252
     42 H          29.4470   -7.3940  110.6910 H       1  UNL1        0.0314
     43 H          29.8800   -4.2270  112.8100 H       1  UNL1        0.0616
     44 H          31.3310   -6.0370  112.6760 H       1  UNL1        0.0292
     45 H          27.9160   -7.8020  112.5470 H       1  UNL1        0.0467
     46 H          31.2010   -8.5140  112.9520 H       1  UNL1        0.0233
     47 H          30.1480   -9.4620  111.8900 H       1  UNL1        0.0233
     48 H          31.2600   -5.8060  110.9210 H       1  UNL1        0.0292
     49 H          29.1200   -7.3220  113.7420 H       1  UNL1        0.0467
     50 H          31.5530   -8.6140  111.2190 H       1  UNL1        0.0233
     51 C          26.6850   -8.1240  105.5780 C.2     1  UNL1        0.2375
     52 C          27.4710   -9.3500  105.8590 C.2     1  UNL1        0.0001
     53 C          28.1710   -9.9450  104.8830 C.2     1  UNL1       -0.0569
     54 C          28.9710  -11.1280  105.1140 C.2     1  UNL1       -0.0616
     55 C          29.7280  -11.6970  104.1640 C.2     1  UNL1       -0.0621
     56 C          30.5340  -12.8720  104.4110 C.2     1  UNL1       -0.0659
     57 C          31.3170  -13.4290  103.4750 C.2     1  UNL1       -0.0871
     58 C          32.1600  -14.6400  103.7140 C.3     1  UNL1       -0.0465
     59 O          26.4690   -7.7080  104.4480 O.2     1  UNL1       -0.2708
     60 N          26.2520   -7.5090  106.7190 N.am    1  UNL1       -0.3002
     61 C          25.5190   -6.2430  106.7020 C.3     1  UNL1        0.1036
     62 C          25.7940   -5.5940  108.0730 C.2     1  UNL1        0.2344
     63 O          26.1450   -6.2670  109.0450 O.2     1  UNL1       -0.2738
     64 C          24.0170   -6.4750  106.4820 C.3     1  UNL1       -0.0006
     65 C          23.2730   -5.2130  106.1180 C.ar    1  UNL1       -0.0451
     66 C          22.5080   -4.5350  107.0750 C.ar    1  UNL1       -0.0585
     67 C          23.3720   -4.6810  104.8250 C.ar    1  UNL1       -0.0585
     68 C          21.8680   -3.3380  106.7510 C.ar    1  UNL1       -0.0615
     69 C          22.7250   -3.4880  104.5010 C.ar    1  UNL1       -0.0615
     70 C          21.9760   -2.8150  105.4640 C.ar    1  UNL1       -0.0617
     71 N          25.6320   -4.2350  108.1300 N.am    1  UNL1       -0.2997
     72 C          25.9090   -3.4430  109.3320 C.3     1  UNL1        0.1340
     73 C          25.2960   -2.0530  109.1200 C.2     1  UNL1        0.2399
     74 O          25.4980   -1.4630  108.0510 O.2     1  UNL1       -0.2734
     75 C          27.4260   -3.2590  109.5360 C.3     1  UNL1        0.1193
     76 O          27.9020   -4.2480  110.4640 O.3     1  UNL1       -0.4610
     77 N          24.5650   -1.4630  110.1280 N.am    1  UNL1       -0.2883
     78 C          24.1550   -2.0020  111.4470 C.3     1  UNL1        0.1025
     79 C          22.9400   -2.9700  111.3240 C.2     1  UNL1        0.2365
     80 O          22.4760   -3.2150  110.2050 O.2     1  UNL1       -0.2735
     81 C          23.7660   -0.7290  112.2110 C.3     1  UNL1       -0.0243
     82 C          23.1770    0.1680  111.1290 C.3     1  UNL1       -0.0350
     83 C          24.0600   -0.1140  109.9290 C.3     1  UNL1        0.0156
     84 N          22.3850   -3.5480  112.4710 N.am    1  UNL1       -0.2917
     85 C          21.2180   -4.4100  112.2720 C.3     1  UNL1        0.0040
     86 C          23.0060   -3.5580  113.8260 C.3     1  UNL1        0.0991
     87 C          22.0060   -3.3590  114.9620 C.3     1  UNL1       -0.0379
     88 C          23.7770   -4.8840  114.0200 C.2     1  UNL1        0.2339
     89 O          23.2370   -5.9640  114.2310 O.2     1  UNL1       -0.2738
     90 N          25.1130   -4.7490  113.7520 N.am    1  UNL1       -0.3027
     91 C          26.0290   -5.8370  113.3890 C.3     1  UNL1        0.0968
     92 C          27.3400   -5.0720  113.0920 C.2     1  UNL1        0.2363
     93 O          27.3700   -3.8380  113.2390 O.2     1  UNL1       -0.2736
     94 C          25.4770   -6.5720  112.1710 C.3     1  UNL1       -0.0381
     95 C          29.2240   -4.1680  110.7820 C.2     1  UNL1        0.3279
     96 N          28.4420   -5.7350  112.6200 N.am    1  UNL1       -0.2862
     97 O          30.0410   -3.4850  110.1750 O.2     1  UNL1       -0.2487
     98 C          29.5610   -4.9630  112.0620 C.3     1  UNL1        0.1233
     99 C          30.6550   -6.0050  111.8120 C.3     1  UNL1       -0.0199
    100 C          28.7670   -7.1460  112.7180 C.3     1  UNL1        0.0182
    101 C          30.7460   -8.5470  111.9560 C.3     1  UNL1       -0.0609
    102 C          29.8840   -7.3260  111.6960 C.3     1  UNL1       -0.0258
@<TRIPOS>BOND
     1     6    57    1
     2    37    58    1
     3     4    55    1
     4    57    58    1
     5    57    56    2
     6    17    69    1
     7    36    58    1
     8    58    35    1
     9     2    53    1
    10    15    67    1
    11    55    56    1
    12    55    54    2
    13    56     5    1
    14    59    51    2
    15    69    67   ar
    16    69    70   ar
    17    67    65   ar
    18    53    54    1
    19    53    52    2
    20    54     3    1
    21    10    70    1
    22    70    68   ar
    23    51    52    1
    24    51    60   am
    25    18    64    1
    26    52     1    1
    27    12    61    1
    28    65    64    1
    29    65    66   ar
    30    64    61    1
    31    64    13    1
    32    61    60    1
    33    61    62    1
    34    60    11    1
    35    68    66   ar
    36    68    16    1
    37    66    14    1
    38    20    71    1
    39    74    73    2
    40    62    71   am
    41    62    63    2
    42    71    72    1
    43    22    75    1
    44    23    83    1
    45    73    72    1
    46    73    77   am
    47    72    75    1
    48    72    21    1
    49    75    19    1
    50    75    76    1
    51    27    83    1
    52    83    77    1
    53    83    82    1
    54    77    78    1
    55    97    95    2
    56    80    79    2
    57    76    95    1
    58    42   102    1
    59    95    98    1
    60    29    82    1
    61    48    99    1
    62    82    26    1
    63    82    81    1
    64    50   101    1
    65     7    85    1
    66    79    78    1
    67    79    84   am
    68    30    94    1
    69    78    24    1
    70    78    81    1
    71    34    94    1
    72   102    99    1
    73   102   101    1
    74   102   100    1
    75    99    98    1
    76    99    44    1
    77    47   101    1
    78   101    46    1
    79    98    96    1
    80    98    43    1
    81    94    33    1
    82    94    91    1
    83    81    25    1
    84    81    28    1
    85    85     9    1
    86    85    84    1
    87    85     8    1
    88    84    86    1
    89    45   100    1
    90    96   100    1
    91    96    92   am
    92   100    49    1
    93    92    93    2
    94    92    91    1
    95    91    90    1
    96    91    32    1
    97    31    90    1
    98    90    88   am
    99    86    39    1
   100    86    88    1
   101    86    87    1
   102    88    89    2
   103    41    87    1
   104    87    40    1
   105    87    38    1
