@<TRIPOS>MOLECULE
139.65252
 102 105 0 0 0
SMALL
GASTEIGER

@<TRIPOS>ATOM
      1 H          34.0220    2.6660  123.3420 H       1  UNL1        0.0669
      2 H          31.5210    4.2540  122.4910 H       1  UNL1        0.0619
      3 H          32.6540    3.4540  125.2840 H       1  UNL1        0.0618
      4 H          30.1570    4.9980  124.3700 H       1  UNL1        0.0617
      5 H          31.2540    4.1810  127.1700 H       1  UNL1        0.0614
      6 H          28.7590    5.7220  126.2440 H       1  UNL1        0.0569
      7 H          34.6990   -1.4740  116.6240 H       1  UNL1        0.0429
      8 H          34.7240   -3.0250  115.7700 H       1  UNL1        0.0429
      9 H          34.3280   -2.9590  117.5160 H       1  UNL1        0.0429
     10 H          39.8710    4.9970  120.0470 H       1  UNL1        0.0618
     11 H          34.9290    1.5890  121.5750 H       1  UNL1        0.1498
     12 H          34.4460    2.6300  118.8290 H       1  UNL1        0.0598
     13 H          36.1620    0.8750  118.1780 H       1  UNL1        0.0336
     14 H          36.6900    3.4090  117.6450 H       1  UNL1        0.0620
     15 H          37.8700    1.4090  121.2850 H       1  UNL1        0.0620
     16 H          38.4180    5.1240  118.0410 H       1  UNL1        0.0618
     17 H          39.5910    3.1360  121.6630 H       1  UNL1        0.0618
     18 H          36.2830    0.3670  119.8470 H       1  UNL1        0.0336
     19 H          29.7400    1.0640  120.3220 H       1  UNL1        0.0721
     20 H          32.1950    2.1550  119.0330 H       1  UNL1        0.1496
     21 H          31.4830   -0.7090  118.5550 H       1  UNL1        0.0629
     22 H          31.1350    0.2980  121.0370 H       1  UNL1        0.0721
     23 H          30.0040    2.2040  115.3890 H       1  UNL1        0.0465
     24 H          30.2900   -1.6050  116.7580 H       1  UNL1        0.0597
     25 H          29.1420   -1.4790  114.7340 H       1  UNL1        0.0288
     26 H          29.3160    0.5090  113.3570 H       1  UNL1        0.0281
     27 H          28.5860    1.1450  115.5810 H       1  UNL1        0.0465
     28 H          30.7430   -1.6710  113.9930 H       1  UNL1        0.0288
     29 H          31.0230    0.7240  113.7910 H       1  UNL1        0.0281
     30 H          27.8730   -6.0360  118.0330 H       1  UNL1        0.0252
     31 H          29.9730   -5.2060  116.8770 H       1  UNL1        0.1495
     32 H          28.9950   -3.3060  118.8400 H       1  UNL1        0.0592
     33 H          27.3890   -4.4680  117.3750 H       1  UNL1        0.0252
     34 H          27.0540   -4.8620  119.0730 H       1  UNL1        0.0252
     35 H          29.8550    4.8740  129.0240 H       1  UNL1        0.0272
     36 H          28.1420    4.9070  128.5700 H       1  UNL1        0.0272
     37 H          29.0610    6.4210  128.6780 H       1  UNL1        0.0272
     38 H          32.0630   -5.7380  115.9290 H       1  UNL1        0.0252
     39 H          31.2150   -3.4840  115.4970 H       1  UNL1        0.0594
     40 H          33.4730   -5.1070  116.7730 H       1  UNL1        0.0252
     41 H          33.2780   -4.8180  115.0320 H       1  UNL1        0.0252
     42 H          30.5630   -3.4980  123.6880 H       1  UNL1        0.0314
     43 H          28.1760   -2.8380  120.7310 H       1  UNL1        0.0616
     44 H          27.6050   -3.4670  122.9240 H       1  UNL1        0.0292
     45 H          30.9160   -5.4010  122.3560 H       1  UNL1        0.0467
     46 H          28.1810   -5.1830  124.6280 H       1  UNL1        0.0233
     47 H          29.8530   -5.3370  125.1920 H       1  UNL1        0.0233
     48 H          28.6400   -2.0790  123.3120 H       1  UNL1        0.0292
     49 H          29.2320   -5.9520  122.4930 H       1  UNL1        0.0467
     50 H          28.9370   -3.8560  125.5250 H       1  UNL1        0.0233
     51 C          33.4720    3.0240  121.2290 C.2     1  UNL1        0.2375
     52 C          33.2960    3.1410  122.6960 C.2     1  UNL1        0.0001
     53 C          32.2310    3.7970  123.1800 C.2     1  UNL1       -0.0569
     54 C          31.9500    3.9130  124.5930 C.2     1  UNL1       -0.0616
     55 C          30.8620    4.5420  125.0620 C.2     1  UNL1       -0.0621
     56 C          30.5570    4.6410  126.4710 C.2     1  UNL1       -0.0659
     57 C          29.4620    5.2610  126.9350 C.2     1  UNL1       -0.0871
     58 C          29.1170    5.3680  128.3850 C.3     1  UNL1       -0.0465
     59 O          32.7600    3.6090  120.4220 O.2     1  UNL1       -0.2708
     60 N          34.4490    2.1330  120.8710 N.am    1  UNL1       -0.3002
     61 C          34.6580    1.7630  119.4660 C.3     1  UNL1        0.1036
     62 C          33.6220    0.6630  119.1660 C.2     1  UNL1        0.2344
     63 O          33.8890   -0.5350  119.2190 O.2     1  UNL1       -0.2738
     64 C          36.0780    1.2390  119.2110 C.3     1  UNL1       -0.0006
     65 C          37.1480    2.2840  119.4390 C.ar    1  UNL1       -0.0451
     66 C          37.3180    3.3380  118.5300 C.ar    1  UNL1       -0.0585
     67 C          37.9770    2.2190  120.5670 C.ar    1  UNL1       -0.0585
     68 C          38.2950    4.3100  118.7500 C.ar    1  UNL1       -0.0615
     69 C          38.9530    3.1930  120.7850 C.ar    1  UNL1       -0.0615
     70 C          39.1110    4.2380  119.8770 C.ar    1  UNL1       -0.0617
     71 N          32.3470    1.1460  118.9750 N.am    1  UNL1       -0.2997
     72 C          31.1710    0.2850  118.8570 C.3     1  UNL1        0.1340
     73 C          30.2940    0.9550  117.7810 C.2     1  UNL1        0.2399
     74 O          29.7110    2.0190  118.0220 O.2     1  UNL1       -0.2734
     75 C          30.4280    0.2200  120.2010 C.3     1  UNL1        0.1193
     76 O          29.6260   -0.9770  120.3210 O.3     1  UNL1       -0.4610
     77 N          30.3010    0.4400  116.4990 N.am    1  UNL1       -0.2883
     78 C          30.7420   -0.8930  116.0700 C.3     1  UNL1        0.1025
     79 C          32.2820   -1.0690  116.0260 C.2     1  UNL1        0.2365
     80 O          33.0110   -0.0980  115.7970 O.2     1  UNL1       -0.2735
     81 C          30.1480   -1.0460  114.6650 C.3     1  UNL1       -0.0243
     82 C          30.0470    0.3900  114.1620 C.3     1  UNL1       -0.0350
     83 C          29.6690    1.1630  115.4130 C.3     1  UNL1        0.0156
     84 N          32.8000   -2.3540  116.2280 N.am    1  UNL1       -0.2917
     85 C          34.2180   -2.4530  116.5520 C.3     1  UNL1        0.0040
     86 C          31.9810   -3.5920  116.2740 C.3     1  UNL1        0.0991
     87 C          32.7450   -4.8830  115.9860 C.3     1  UNL1       -0.0379
     88 C          31.2300   -3.7100  117.6150 C.2     1  UNL1        0.2339
     89 O          31.5320   -3.0730  118.6200 O.2     1  UNL1       -0.2738
     90 N          30.0940   -4.4890  117.5810 N.am    1  UNL1       -0.3027
     91 C          29.1300   -4.3750  118.6660 C.3     1  UNL1        0.0968
     92 C          29.6370   -5.0840  119.9390 C.2     1  UNL1        0.2363
     93 O          30.0660   -6.2400  119.8780 O.2     1  UNL1       -0.2736
     94 C          27.7850   -4.9690  118.2650 C.3     1  UNL1       -0.0381
     95 C          30.1120   -1.9490  121.1550 C.2     1  UNL1        0.3279
     96 N          29.5270   -4.4100  121.1380 N.am    1  UNL1       -0.2862
     97 O          31.1940   -1.9140  121.7250 O.2     1  UNL1       -0.2487
     98 C          29.0430   -3.0440  121.3660 C.3     1  UNL1        0.1233
     99 C          28.6230   -3.0660  122.8390 C.3     1  UNL1       -0.0199
    100 C          29.8730   -5.0690  122.3870 C.3     1  UNL1        0.0182
    101 C          29.1190   -4.6380  124.7790 C.3     1  UNL1       -0.0609
    102 C          29.6270   -4.0320  123.4820 C.3     1  UNL1       -0.0258
@<TRIPOS>BOND
     1    26    82    1
     2    29    82    1
     3    28    81    1
     4    82    81    1
     5    82    83    1
     6    81    25    1
     7    81    78    1
     8    41    87    1
     9    23    83    1
    10    83    27    1
    11    83    77    1
    12    39    86    1
    13     8    85    1
    14    80    79    2
    15    38    87    1
    16    87    86    1
    17    87    40    1
    18    79    78    1
    19    79    84   am
    20    78    77    1
    21    78    24    1
    22    84    86    1
    23    84    85    1
    24    86    88    1
    25    77    73   am
    26    85     7    1
    27    85     9    1
    28    31    90    1
    29    33    94    1
    30    90    88   am
    31    90    91    1
    32    88    89    2
    33    14    66    1
    34    73    74    2
    35    73    72    1
    36    30    94    1
    37    16    68    1
    38    13    64    1
    39    94    91    1
    40    94    34    1
    41    66    68   ar
    42    66    65   ar
    43    21    72    1
    44    91    32    1
    45    91    92    1
    46    68    70   ar
    47    12    61    1
    48    72    71    1
    49    72    75    1
    50    71    20    1
    51    71    62   am
    52    62    63    2
    53    62    61    1
    54    64    65    1
    55    64    61    1
    56    64    18    1
    57    65    67   ar
    58    61    60    1
    59    70    10    1
    60    70    69   ar
    61    93    92    2
    62    92    96   am
    63    75    76    1
    64    75    19    1
    65    75    22    1
    66    76    95    1
    67    59    51    2
    68    67    69   ar
    69    67    15    1
    70    43    98    1
    71    69    17    1
    72    60    51   am
    73    60    11    1
    74    96    98    1
    75    96   100    1
    76    95    98    1
    77    95    97    2
    78    51    52    1
    79    98    99    1
    80    45   100    1
    81   100    49    1
    82   100   102    1
    83     2    53    1
    84    52    53    2
    85    52     1    1
    86    99    44    1
    87    99    48    1
    88    99   102    1
    89    53    54    1
    90   102    42    1
    91   102   101    1
    92     4    55    1
    93    54    55    2
    94    54     3    1
    95    46   101    1
    96   101    47    1
    97   101    50    1
    98    55    56    1
    99     6    57    1
   100    56    57    2
   101    56     5    1
   102    57    58    1
   103    58    36    1
   104    58    37    1
   105    58    35    1
