@<TRIPOS>MOLECULE
123.46479
 102 105 0 0 0
SMALL
GASTEIGER

@<TRIPOS>ATOM
      1 H          33.7390    2.7800  115.8780 H       1  UNL1        0.0669
      2 H          35.1550    5.3590  116.7960 H       1  UNL1        0.0619
      3 H          36.0810    2.9610  115.0290 H       1  UNL1        0.0618
      4 H          37.4740    5.5130  116.0340 H       1  UNL1        0.0617
      5 H          38.4080    3.1290  114.2570 H       1  UNL1        0.0614
      6 H          39.8030    5.6660  115.2910 H       1  UNL1        0.0569
      7 H          27.1370   -1.9090  116.8030 H       1  UNL1        0.0429
      8 H          25.8330   -3.0660  117.1440 H       1  UNL1        0.0429
      9 H          27.5370   -3.5740  117.2700 H       1  UNL1        0.0429
     10 H          27.5660    1.9920  112.9960 H       1  UNL1        0.0618
     11 H          31.7540    2.4920  116.9150 H       1  UNL1        0.1498
     12 H          30.9020    4.3580  118.9740 H       1  UNL1        0.0598
     13 H          29.9050    5.4970  117.0500 H       1  UNL1        0.0336
     14 H          30.3440    4.7430  114.7680 H       1  UNL1        0.0620
     15 H          27.4050    2.7270  117.2140 H       1  UNL1        0.0620
     16 H          29.4610    3.5800  112.7770 H       1  UNL1        0.0618
     17 H          26.5530    1.5720  115.2250 H       1  UNL1        0.0618
     18 H          28.6530    4.7740  118.0260 H       1  UNL1        0.0336
     19 H          28.7020    0.4970  122.4070 H       1  UNL1        0.0721
     20 H          28.7420    3.4950  119.9780 H       1  UNL1        0.1496
     21 H          28.5300    0.5840  119.7420 H       1  UNL1        0.0629
     22 H          29.4580    2.0730  122.2810 H       1  UNL1        0.0721
     23 H          24.4020    2.0310  120.4300 H       1  UNL1        0.0465
     24 H          27.1120   -0.9450  121.2130 H       1  UNL1        0.0597
     25 H          25.0010   -1.2760  122.2550 H       1  UNL1        0.0288
     26 H          23.0240   -0.1170  121.4380 H       1  UNL1        0.0281
     27 H          24.6620    1.5220  122.1160 H       1  UNL1        0.0465
     28 H          24.6250   -2.1210  120.7430 H       1  UNL1        0.0288
     29 H          23.6390   -0.1380  119.7750 H       1  UNL1        0.0281
     30 H          30.7150   -5.1730  117.6060 H       1  UNL1        0.0252
     31 H          29.1520   -2.5620  118.7490 H       1  UNL1        0.1495
     32 H          31.0620   -3.8810  120.3640 H       1  UNL1        0.0592
     33 H          30.5540   -5.9700  119.1730 H       1  UNL1        0.0252
     34 H          32.1370   -5.3840  118.6420 H       1  UNL1        0.0252
     35 H          40.7100    3.2800  113.5200 H       1  UNL1        0.0272
     36 H          41.7210    4.0880  114.7320 H       1  UNL1        0.0272
     37 H          41.2010    4.9670  113.2820 H       1  UNL1        0.0272
     38 H          25.9890   -5.2620  120.5170 H       1  UNL1        0.0252
     39 H          26.8430   -3.0260  120.8460 H       1  UNL1        0.0594
     40 H          26.1530   -5.1460  118.7650 H       1  UNL1        0.0252
     41 H          24.9450   -4.1600  119.6040 H       1  UNL1        0.0252
     42 H          32.5630    1.1740  119.7560 H       1  UNL1        0.0314
     43 H          32.0130   -2.2560  121.3760 H       1  UNL1        0.0616
     44 H          34.0070   -1.0370  121.2810 H       1  UNL1        0.0292
     45 H          32.4890   -0.2300  117.8380 H       1  UNL1        0.0467
     46 H          35.4650    0.1980  119.6820 H       1  UNL1        0.0233
     47 H          34.7790    1.4920  118.6870 H       1  UNL1        0.0233
     48 H          32.9690    0.2230  121.9570 H       1  UNL1        0.0292
     49 H          33.8740   -1.2000  118.3690 H       1  UNL1        0.0467
     50 H          34.8810    1.6860  120.4460 H       1  UNL1        0.0233
     51 C          32.7710    4.2980  117.1630 C.2     1  UNL1        0.2375
     52 C          33.8880    3.7350  116.3660 C.2     1  UNL1        0.0001
     53 C          35.0470    4.4030  116.2840 C.2     1  UNL1       -0.0569
     54 C          36.1920    3.9090  115.5520 C.2     1  UNL1       -0.0616
     55 C          37.3610    4.5660  115.5080 C.2     1  UNL1       -0.0621
     56 C          38.5140    4.0720  114.7900 C.2     1  UNL1       -0.0659
     57 C          39.6860    4.7230  114.7620 C.2     1  UNL1       -0.0871
     58 C          40.8930    4.2310  114.0310 C.3     1  UNL1       -0.0465
     59 O          32.7940    5.4220  117.6450 O.2     1  UNL1       -0.2708
     60 N          31.7360    3.4220  117.3210 N.am    1  UNL1       -0.3002
     61 C          30.5640    3.7420  118.1310 C.3     1  UNL1        0.1036
     62 C          30.0300    2.4290  118.7290 C.2     1  UNL1        0.2344
     63 O          30.4260    1.3240  118.3600 O.2     1  UNL1       -0.2738
     64 C          29.4910    4.5290  117.3610 C.3     1  UNL1       -0.0006
     65 C          28.9430    3.8240  116.1410 C.ar    1  UNL1       -0.0451
     66 C          29.5120    4.0510  114.8790 C.ar    1  UNL1       -0.0585
     67 C          27.8710    2.9290  116.2510 C.ar    1  UNL1       -0.0585
     68 C          29.0160    3.3950  113.7510 C.ar    1  UNL1       -0.0615
     69 C          27.3800    2.2700  115.1230 C.ar    1  UNL1       -0.0615
     70 C          27.9510    2.5050  113.8730 C.ar    1  UNL1       -0.0617
     71 N          29.1040    2.5790  119.7280 N.am    1  UNL1       -0.2997
     72 C          28.5150    1.4330  120.4270 C.3     1  UNL1        0.1340
     73 C          27.0720    1.8210  120.7650 C.2     1  UNL1        0.2399
     74 O          26.8070    2.9990  121.0350 O.2     1  UNL1       -0.2734
     75 C          29.2770    1.1420  121.7310 C.3     1  UNL1        0.1193
     76 O          30.5730    0.5480  121.4960 O.3     1  UNL1       -0.4610
     77 N          26.1050    0.8440  120.7930 N.am    1  UNL1       -0.2883
     78 C          26.2600   -0.6160  120.6190 C.3     1  UNL1        0.1025
     79 C          26.4590   -1.0430  119.1360 C.2     1  UNL1        0.2365
     80 O          26.2770   -0.2200  118.2330 O.2     1  UNL1       -0.2735
     81 C          24.9340   -1.1630  121.1650 C.3     1  UNL1       -0.0243
     82 C          23.9310   -0.0670  120.8300 C.3     1  UNL1       -0.0350
     83 C          24.7240    1.2030  121.0690 C.3     1  UNL1        0.0156
     84 N          26.8080   -2.3670  118.8460 N.am    1  UNL1       -0.2917
     85 C          26.8390   -2.7500  117.4350 C.3     1  UNL1        0.0040
     86 C          26.9940   -3.4480  119.8500 C.3     1  UNL1        0.0991
     87 C          25.9600   -4.5640  119.6730 C.3     1  UNL1       -0.0379
     88 C          28.4130   -4.0710  119.9300 C.2     1  UNL1        0.2339
     89 O          28.6510   -5.0340  120.6580 O.2     1  UNL1       -0.2738
     90 N          29.3910   -3.4370  119.2060 N.am    1  UNL1       -0.3027
     91 C          30.7980   -3.8050  119.3060 C.3     1  UNL1        0.0968
     92 C          31.6490   -2.7210  118.6120 C.2     1  UNL1        0.2363
     93 O          31.8540   -2.7720  117.3940 O.2     1  UNL1       -0.2736
     94 C          31.0650   -5.1580  118.6450 C.3     1  UNL1       -0.0381
     95 C          30.5400   -0.7460  121.0800 C.2     1  UNL1        0.3279
     96 N          32.1010   -1.6450  119.3490 N.am    1  UNL1       -0.2862
     97 O          29.4900   -1.3660  120.9450 O.2     1  UNL1       -0.2487
     98 C          31.9290   -1.3440  120.7780 C.3     1  UNL1        0.1233
     99 C          33.1160   -0.4250  121.0880 C.3     1  UNL1       -0.0199
    100 C          32.9780   -0.6700  118.7130 C.3     1  UNL1        0.0182
    101 C          34.6860    0.9670  119.6430 C.3     1  UNL1       -0.0609
    102 C          33.3000    0.3650  119.7890 C.3     1  UNL1       -0.0258
@<TRIPOS>BOND
     1    16    68    1
     2    10    70    1
     3    37    58    1
     4    35    58    1
     5    68    70   ar
     6    68    66   ar
     7    70    69   ar
     8    58    36    1
     9    58    57    1
    10     5    56    1
    11    57    56    2
    12    57     6    1
    13    14    66    1
    14    56    55    1
    15    66    65   ar
    16     3    54    1
    17    69    17    1
    18    69    67   ar
    19    55    54    2
    20    55     4    1
    21    54    53    1
    22     1    52    1
    23    65    67   ar
    24    65    64    1
    25    67    15    1
    26    53    52    2
    27    53     2    1
    28    52    51    1
    29     7    85    1
    30    11    60    1
    31    13    64    1
    32     8    85    1
    33    51    60   am
    34    51    59    2
    35     9    85    1
    36    60    61    1
    37    64    18    1
    38    64    61    1
    39    93    92    2
    40    85    84    1
    41    30    94    1
    42    45   100    1
    43    61    62    1
    44    61    12    1
    45    80    79    2
    46    63    62    2
    47    49   100    1
    48    92    91    1
    49    92    96   am
    50    34    94    1
    51    94    33    1
    52    94    91    1
    53    47   101    1
    54   100    96    1
    55   100   102    1
    56    62    71   am
    57    31    90    1
    58    40    87    1
    59    84    79   am
    60    84    86    1
    61    79    78    1
    62    90    91    1
    63    90    88   am
    64    91    32    1
    65    96    98    1
    66    41    87    1
    67   101    46    1
    68   101   102    1
    69   101    50    1
    70    87    86    1
    71    87    38    1
    72    71    20    1
    73    71    72    1
    74    21    72    1
    75    42   102    1
    76    29    82    1
    77   102    99    1
    78    86    88    1
    79    86    39    1
    80    88    89    2
    81    72    73    1
    82    72    75    1
    83    23    83    1
    84    78    77    1
    85    78    81    1
    86    78    24    1
    87    28    81    1
    88    73    77   am
    89    73    74    2
    90    98    95    1
    91    98    99    1
    92    98    43    1
    93    77    83    1
    94    82    83    1
    95    82    81    1
    96    82    26    1
    97    97    95    2
    98    83    27    1
    99    95    76    1
   100    99    44    1
   101    99    48    1
   102    81    25    1
   103    76    75    1
   104    75    22    1
   105    75    19    1
