@<TRIPOS>MOLECULE
141.72274
 102 105 0 0 0
SMALL
GASTEIGER

@<TRIPOS>ATOM
      1 H          28.3360    5.8800  122.9980 H       1  UNL1        0.0669
      2 H          28.3250    8.6700  121.6910 H       1  UNL1        0.0619
      3 H          26.9770    7.5350  124.2650 H       1  UNL1        0.0618
      4 H          26.9230   10.2850  122.8900 H       1  UNL1        0.0617
      5 H          25.5740    9.1530  125.4620 H       1  UNL1        0.0614
      6 H          25.4930   11.8920  124.0680 H       1  UNL1        0.0569
      7 H          27.8130    5.8910  115.9170 H       1  UNL1        0.0429
      8 H          26.2890    6.1620  115.0570 H       1  UNL1        0.0429
      9 H          27.7100    5.5220  114.1880 H       1  UNL1        0.0429
     10 H          34.5800    3.5340  115.4890 H       1  UNL1        0.0618
     11 H          29.3580    4.3390  121.7280 H       1  UNL1        0.1498
     12 H          30.1030    4.9770  118.9890 H       1  UNL1        0.0598
     13 H          32.2680    3.8330  120.8720 H       1  UNL1        0.0336
     14 H          32.8590    2.1130  119.1480 H       1  UNL1        0.0620
     15 H          32.6820    6.3120  118.1600 H       1  UNL1        0.0620
     16 H          34.0480    1.6740  117.0410 H       1  UNL1        0.0618
     17 H          33.8940    5.8540  116.0550 H       1  UNL1        0.0618
     18 H          32.2070    5.5240  120.4500 H       1  UNL1        0.0336
     19 H          29.1230   -0.8580  118.4500 H       1  UNL1        0.0721
     20 H          29.2230    3.3280  117.9390 H       1  UNL1        0.1496
     21 H          28.5370    1.2950  117.3080 H       1  UNL1        0.0629
     22 H          29.8590    0.0150  119.7620 H       1  UNL1        0.0721
     23 H          25.3820    2.4750  120.3590 H       1  UNL1        0.0465
     24 H          26.4230    1.5810  116.4890 H       1  UNL1        0.0597
     25 H          24.0830    1.6290  116.8790 H       1  UNL1        0.0288
     26 H          23.1680    2.8020  118.8070 H       1  UNL1        0.0281
     27 H          24.7040    1.0640  119.5100 H       1  UNL1        0.0465
     28 H          24.2170    3.3450  116.4450 H       1  UNL1        0.0288
     29 H          24.4670    4.0100  118.7480 H       1  UNL1        0.0281
     30 H          31.0440    3.4560  113.3840 H       1  UNL1        0.0252
     31 H          28.6280    3.6090  114.2130 H       1  UNL1        0.1495
     32 H          29.1060    1.2400  112.4610 H       1  UNL1        0.0592
     33 H          30.4130    3.2740  111.7420 H       1  UNL1        0.0252
     34 H          31.4910    2.0390  112.4270 H       1  UNL1        0.0252
     35 H          24.1560   10.7350  126.6230 H       1  UNL1        0.0272
     36 H          23.3840   11.8590  125.4910 H       1  UNL1        0.0272
     37 H          24.7720   12.3900  126.4600 H       1  UNL1        0.0272
     38 H          24.7980    3.5790  112.5620 H       1  UNL1        0.0252
     39 H          25.3540    2.6630  114.7380 H       1  UNL1        0.0594
     40 H          25.9890    4.8650  112.7180 H       1  UNL1        0.0252
     41 H          24.5660    4.8430  113.7810 H       1  UNL1        0.0252
     42 H          31.8510   -2.1040  114.2300 H       1  UNL1        0.0314
     43 H          29.0630   -0.5320  116.3390 H       1  UNL1        0.0616
     44 H          29.0920   -2.6300  115.4250 H       1  UNL1        0.0292
     45 H          30.8760   -0.5100  112.7170 H       1  UNL1        0.0467
     46 H          29.3970   -3.6060  113.1550 H       1  UNL1        0.0233
     47 H          30.9410   -3.4030  112.3120 H       1  UNL1        0.0233
     48 H          30.6660   -2.8190  116.2140 H       1  UNL1        0.0292
     49 H          29.2220   -1.1040  113.0160 H       1  UNL1        0.0467
     50 H          30.8650   -4.3490  113.8100 H       1  UNL1        0.0233
     51 C          29.4130    6.3330  121.1200 C.2     1  UNL1        0.2375
     52 C          28.5640    6.6670  122.2900 C.2     1  UNL1        0.0001
     53 C          28.0790    7.9090  122.4310 C.2     1  UNL1       -0.0569
     54 C          27.2130    8.2950  123.5230 C.2     1  UNL1       -0.0616
     55 C          26.6920    9.5260  123.6350 C.2     1  UNL1       -0.0621
     56 C          25.8070    9.9070  124.7120 C.2     1  UNL1       -0.0659
     57 C          25.2680   11.1320  124.8130 C.2     1  UNL1       -0.0871
     58 C          24.3440   11.5450  125.9110 C.3     1  UNL1       -0.0465
     59 O          29.8040    7.1720  120.3190 O.2     1  UNL1       -0.2708
     60 N          29.6890    4.9970  121.0300 N.am    1  UNL1       -0.3002
     61 C          30.4130    4.4340  119.8900 C.3     1  UNL1        0.1036
     62 C          29.9690    2.9620  119.8160 C.2     1  UNL1        0.2344
     63 O          30.0560    2.2140  120.7880 O.2     1  UNL1       -0.2738
     64 C          31.9310    4.5250  120.0890 C.3     1  UNL1       -0.0006
     65 C          32.6930    4.2490  118.8140 C.ar    1  UNL1       -0.0451
     66 C          33.0840    2.9460  118.4840 C.ar    1  UNL1       -0.0585
     67 C          32.9850    5.2930  117.9260 C.ar    1  UNL1       -0.0585
     68 C          33.7600    2.6920  117.2900 C.ar    1  UNL1       -0.0615
     69 C          33.6660    5.0380  116.7340 C.ar    1  UNL1       -0.0615
     70 C          34.0530    3.7370  116.4170 C.ar    1  UNL1       -0.0617
     71 N          29.3850    2.5980  118.6290 N.am    1  UNL1       -0.2997
     72 C          28.7620    1.3040  118.3690 C.3     1  UNL1        0.1340
     73 C          27.4130    1.2360  119.1000 C.2     1  UNL1        0.2399
     74 O          27.2950    0.6260  120.1670 O.2     1  UNL1       -0.2734
     75 C          29.6390    0.0780  118.6920 C.3     1  UNL1        0.1193
     76 O          30.9320    0.1050  118.0240 O.3     1  UNL1       -0.4610
     77 N          26.3370    1.9260  118.5630 N.am    1  UNL1       -0.2883
     78 C          26.1020    2.3780  117.1680 C.3     1  UNL1        0.1025
     79 C          26.8130    3.6950  116.7440 C.2     1  UNL1        0.2365
     80 O          27.4700    4.3350  117.5710 O.2     1  UNL1       -0.2735
     81 C          24.5720    2.5770  117.1380 C.3     1  UNL1       -0.0243
     82 C          24.2240    2.9560  118.5700 C.3     1  UNL1       -0.0350
     83 C          25.1390    2.0610  119.3750 C.3     1  UNL1        0.0156
     84 N          26.6840    4.1480  115.4200 N.am    1  UNL1       -0.2917
     85 C          27.1590    5.5030  115.1310 C.3     1  UNL1        0.0040
     86 C          26.0710    3.3630  114.3070 C.3     1  UNL1        0.0991
     87 C          25.3160    4.2160  113.2880 C.3     1  UNL1       -0.0379
     88 C          27.0750    2.4530  113.5650 C.2     1  UNL1        0.2339
     89 O          26.7050    1.4500  112.9580 O.2     1  UNL1       -0.2738
     90 N          28.3790    2.8830  113.5480 N.am    1  UNL1       -0.3027
     91 C          29.4660    1.9730  113.1870 C.3     1  UNL1        0.0968
     92 C          29.7930    1.3160  114.5340 C.2     1  UNL1        0.2363
     93 O          29.7730    1.9980  115.5650 O.2     1  UNL1       -0.2736
     94 C          30.6700    2.7270  112.6550 C.3     1  UNL1       -0.0381
     95 C          31.1980   -0.3150  116.7640 C.2     1  UNL1        0.3279
     96 N          30.0360   -0.0300  114.5850 N.am    1  UNL1       -0.2862
     97 O          32.3600   -0.3600  116.3570 O.2     1  UNL1       -0.2487
     98 C          30.0250   -0.7340  115.8710 C.3     1  UNL1        0.1233
     99 C          30.1060   -2.2160  115.4920 C.3     1  UNL1       -0.0199
    100 C          30.2070   -0.9410  113.4680 C.3     1  UNL1        0.0182
    101 C          30.4730   -3.4630  113.3000 C.3     1  UNL1       -0.0609
    102 C          30.7650   -2.2090  114.1060 C.3     1  UNL1       -0.0258
@<TRIPOS>BOND
     1    33    94    1
     2    47   101    1
     3    34    94    1
     4    32    91    1
     5    38    87    1
     6    94    91    1
     7    94    30    1
     8    45   100    1
     9    40    87    1
    10    89    88    2
    11    49   100    1
    12    46   101    1
    13    91    90    1
    14    91    92    1
    15    87    41    1
    16    87    86    1
    17   101    50    1
    18   101   102    1
    19   100   102    1
    20   100    96    1
    21    90    88   am
    22    90    31    1
    23    88    86    1
    24   102    42    1
    25   102    99    1
    26     9    85    1
    27    86    39    1
    28    86    84    1
    29    92    96   am
    30    92    93    2
    31    96    98    1
    32     8    85    1
    33    85    84    1
    34    85     7    1
    35    84    79   am
    36    44    99    1
    37    10    70    1
    38    99    98    1
    39    99    48    1
    40    98    43    1
    41    98    95    1
    42    17    69    1
    43    97    95    2
    44    70    69   ar
    45    70    68   ar
    46    28    81    1
    47    24    78    1
    48    69    67   ar
    49    79    78    1
    50    79    80    2
    51    95    76    1
    52    25    81    1
    53    16    68    1
    54    81    78    1
    55    81    82    1
    56    78    77    1
    57    68    66   ar
    58    21    72    1
    59    67    15    1
    60    67    65   ar
    61    20    71    1
    62    76    75    1
    63    72    71    1
    64    72    75    1
    65    72    73    1
    66    19    75    1
    67    66    65   ar
    68    66    14    1
    69    77    73   am
    70    77    83    1
    71    82    29    1
    72    82    26    1
    73    82    83    1
    74    71    62   am
    75    75    22    1
    76    65    64    1
    77    12    61    1
    78    73    74    2
    79    83    27    1
    80    83    23    1
    81    62    61    1
    82    62    63    2
    83    61    64    1
    84    61    60    1
    85    64    18    1
    86    64    13    1
    87    59    51    2
    88    60    51   am
    89    60    11    1
    90    51    52    1
    91     2    53    1
    92    52    53    2
    93    52     1    1
    94    53    54    1
    95     4    55    1
    96    54    55    2
    97    54     3    1
    98    55    56    1
    99     6    57    1
   100    56    57    2
   101    56     5    1
   102    57    58    1
   103    36    58    1
   104    58    37    1
   105    58    35    1
