@<TRIPOS>MOLECULE
150.31545
 102 105 0 0 0
SMALL
GASTEIGER

@<TRIPOS>ATOM
      1 H          21.9020   -2.7650  117.0150 H       1  UNL1        0.0669
      2 H          22.2510   -2.0170  119.9820 H       1  UNL1        0.0619
      3 H          20.6670   -0.7120  117.6320 H       1  UNL1        0.0618
      4 H          21.0530    0.0480  120.5870 H       1  UNL1        0.0617
      5 H          19.4840    1.3430  118.2240 H       1  UNL1        0.0614
      6 H          19.8650    2.1190  121.1740 H       1  UNL1        0.0569
      7 H          28.9480   -4.1290  112.5930 H       1  UNL1        0.0429
      8 H          30.3220   -3.2600  111.8930 H       1  UNL1        0.0429
      9 H          29.0380   -2.3750  112.7680 H       1  UNL1        0.0429
     10 H          27.7930  -10.9260  117.0560 H       1  UNL1        0.0618
     11 H          23.2320   -4.4200  116.4010 H       1  UNL1        0.1498
     12 H          24.5970   -6.1100  118.4480 H       1  UNL1        0.0598
     13 H          24.3230   -6.4980  115.3950 H       1  UNL1        0.0336
     14 H          26.4150   -7.5360  114.8260 H       1  UNL1        0.0620
     15 H          24.2990   -8.8120  118.3730 H       1  UNL1        0.0620
     16 H          28.0240   -9.3710  115.1380 H       1  UNL1        0.0618
     17 H          25.9270  -10.6440  118.6630 H       1  UNL1        0.0618
     18 H          23.2570   -7.2520  116.5550 H       1  UNL1        0.0336
     19 H          27.8750   -3.0410  117.9600 H       1  UNL1        0.0721
     20 H          26.9660   -6.4720  118.1130 H       1  UNL1        0.1496
     21 H          28.3460   -4.6520  116.3480 H       1  UNL1        0.0629
     22 H          29.5850   -3.4980  118.2770 H       1  UNL1        0.0721
     23 H          31.1710   -7.9470  116.7120 H       1  UNL1        0.0465
     24 H          30.8850   -3.8660  116.6020 H       1  UNL1        0.0597
     25 H          33.1150   -4.6460  116.6510 H       1  UNL1        0.0288
     26 H          33.6260   -6.9430  116.0420 H       1  UNL1        0.0281
     27 H          32.0540   -6.9400  117.8850 H       1  UNL1        0.0465
     28 H          32.9490   -4.6310  114.8840 H       1  UNL1        0.0288
     29 H          32.3170   -6.9690  114.8460 H       1  UNL1        0.0281
     30 H          27.2090   -1.3450  116.4050 H       1  UNL1        0.0252
     31 H          30.6160   -1.6770  116.8380 H       1  UNL1        0.1495
     32 H          29.4250    0.7130  116.9540 H       1  UNL1        0.0592
     33 H          27.6390   -0.0140  115.3450 H       1  UNL1        0.0252
     34 H          26.9590    0.3490  116.9070 H       1  UNL1        0.0252
     35 H          18.3220    3.3850  118.7920 H       1  UNL1        0.0272
     36 H          19.1880    4.2960  120.0420 H       1  UNL1        0.0272
     37 H          17.7480    3.3500  120.4690 H       1  UNL1        0.0272
     38 H          32.7260   -0.8780  113.6810 H       1  UNL1        0.0252
     39 H          31.8370   -2.4990  115.2410 H       1  UNL1        0.0594
     40 H          31.5430   -1.3050  112.4480 H       1  UNL1        0.0252
     41 H          32.7670   -2.4890  112.9370 H       1  UNL1        0.0252
     42 H          25.8150   -2.2600  120.4100 H       1  UNL1        0.0314
     43 H          29.4900   -1.4120  120.9720 H       1  UNL1        0.0616
     44 H          27.6330   -0.3200  121.9170 H       1  UNL1        0.0292
     45 H          26.3110   -1.1730  118.4280 H       1  UNL1        0.0467
     46 H          25.4200    0.6480  121.3140 H       1  UNL1        0.0233
     47 H          24.2610   -0.3060  120.3770 H       1  UNL1        0.0233
     48 H          27.2080   -1.9780  122.3760 H       1  UNL1        0.0292
     49 H          26.7720    0.3710  119.2050 H       1  UNL1        0.0467
     50 H          24.6670   -0.7840  122.0350 H       1  UNL1        0.0233
     51 C          23.1580   -3.9420  118.4040 C.2     1  UNL1        0.2375
     52 C          22.2460   -2.8290  118.0390 C.2     1  UNL1        0.0001
     53 C          21.8860   -1.9230  118.9600 C.2     1  UNL1       -0.0569
     54 C          21.0320   -0.7970  118.6540 C.2     1  UNL1       -0.0616
     55 C          20.6910    0.1280  119.5630 C.2     1  UNL1       -0.0621
     56 C          19.8480    1.2590  119.2460 C.2     1  UNL1       -0.0659
     57 C          19.5090    2.1910  120.1490 C.2     1  UNL1       -0.0871
     58 C          18.6420    3.3690  119.8390 C.3     1  UNL1       -0.0465
     59 O          23.5900   -4.1030  119.5370 O.2     1  UNL1       -0.2708
     60 N          23.4880   -4.7270  117.3300 N.am    1  UNL1       -0.3002
     61 C          24.5460   -5.7370  117.4180 C.3     1  UNL1        0.1036
     62 C          25.8670   -5.0140  117.0880 C.2     1  UNL1        0.2344
     63 O          25.9090   -3.9900  116.4010 O.2     1  UNL1       -0.2738
     64 C          24.2810   -6.8780  116.4240 C.3     1  UNL1       -0.0006
     65 C          25.2300   -8.0420  116.5720 C.ar    1  UNL1       -0.0451
     66 C          26.2820   -8.2190  115.6630 C.ar    1  UNL1       -0.0585
     67 C          25.1040   -8.9290  117.6500 C.ar    1  UNL1       -0.0585
     68 C          27.1990   -9.2550  115.8360 C.ar    1  UNL1       -0.0615
     69 C          26.0210   -9.9670  117.8190 C.ar    1  UNL1       -0.0615
     70 C          27.0690  -10.1280  116.9140 C.ar    1  UNL1       -0.0617
     71 N          27.0030   -5.6040  117.5810 N.am    1  UNL1       -0.2997
     72 C          28.3210   -5.0160  117.3780 C.3     1  UNL1        0.1340
     73 C          29.4150   -6.0820  117.5320 C.2     1  UNL1        0.2399
     74 O          29.2370   -7.0580  118.2680 O.2     1  UNL1       -0.2734
     75 C          28.5450   -3.8230  118.3120 C.3     1  UNL1        0.1193
     76 O          28.2000   -4.1160  119.6750 O.3     1  UNL1       -0.4610
     77 N          30.5940   -5.9220  116.8280 N.am    1  UNL1       -0.2883
     78 C          31.0470   -4.7730  116.0210 C.3     1  UNL1        0.1025
     79 C          30.3270   -4.6350  114.6560 C.2     1  UNL1        0.2365
     80 O          29.7080   -5.5970  114.1930 O.2     1  UNL1       -0.2735
     81 C          32.5410   -5.0500  115.8090 C.3     1  UNL1       -0.0243
     82 C          32.6220   -6.5720  115.8220 C.3     1  UNL1       -0.0350
     83 C          31.6090   -6.9590  116.8840 C.3     1  UNL1        0.0156
     84 N          30.4080   -3.4170  113.9760 N.am    1  UNL1       -0.2917
     85 C          29.6330   -3.2910  112.7410 C.3     1  UNL1        0.0040
     86 C          31.1880   -2.2230  114.4060 C.3     1  UNL1        0.0991
     87 C          32.1050   -1.6970  113.3020 C.3     1  UNL1       -0.0379
     88 C          30.2410   -1.0990  114.9030 C.2     1  UNL1        0.2339
     89 O          29.7200   -0.2820  114.1510 O.2     1  UNL1       -0.2738
     90 N          29.9600   -1.1750  116.2460 N.am    1  UNL1       -0.3027
     91 C          29.0240   -0.3060  116.9970 C.3     1  UNL1        0.0968
     92 C          29.2340   -0.8350  118.4500 C.2     1  UNL1        0.2363
     93 O          30.4000   -1.1250  118.7760 O.2     1  UNL1       -0.2736
     94 C          27.6340   -0.3370  116.3900 C.3     1  UNL1       -0.0381
     95 C          28.6350   -3.3360  120.6940 C.2     1  UNL1        0.3279
     96 N          28.2180   -1.1180  119.3290 N.am    1  UNL1       -0.2862
     97 O          28.9750   -3.8640  121.7550 O.2     1  UNL1       -0.2487
     98 C          28.5280   -1.7890  120.6020 C.3     1  UNL1        0.1233
     99 C          27.3970   -1.3170  121.5240 C.3     1  UNL1       -0.0199
    100 C          26.8140   -0.7200  119.2840 C.3     1  UNL1        0.0182
    101 C          25.0740   -0.3700  121.1070 C.3     1  UNL1       -0.0609
    102 C          26.1980   -1.2450  120.5800 C.3     1  UNL1       -0.0258
@<TRIPOS>BOND
     1     8    85    1
     2    40    87    1
     3     7    85    1
     4    85     9    1
     5    85    84    1
     6    41    87    1
     7    87    38    1
     8    87    86    1
     9    84    86    1
    10    84    79   am
    11    89    88    2
    12    80    79    2
    13    86    88    1
    14    86    39    1
    15    79    78    1
    16    14    66    1
    17    29    82    1
    18    28    81    1
    19    88    90   am
    20    16    68    1
    21    33    94    1
    22    13    64    1
    23    66    68   ar
    24    66    65   ar
    25    81    82    1
    26    81    78    1
    27    81    25    1
    28    82    26    1
    29    82    83    1
    30    68    70   ar
    31    78    24    1
    32    78    77    1
    33    90    31    1
    34    90    91    1
    35    21    72    1
    36    94    30    1
    37    94    34    1
    38    94    91    1
    39    11    60    1
    40    63    62    2
    41    64    18    1
    42    64    65    1
    43    64    61    1
    44    65    67   ar
    45    23    83    1
    46    77    83    1
    47    77    73   am
    48    83    27    1
    49    70    10    1
    50    70    69   ar
    51    32    91    1
    52    91    92    1
    53     1    52    1
    54    62    61    1
    55    62    71   am
    56    60    61    1
    57    60    51   am
    58    72    73    1
    59    72    71    1
    60    72    75    1
    61    61    12    1
    62    73    74    2
    63    71    20    1
    64     3    54    1
    65    67    69   ar
    66    67    15    1
    67    69    17    1
    68    19    75    1
    69    52    51    1
    70    52    53    2
    71     5    56    1
    72    22    75    1
    73    75    76    1
    74    51    59    2
    75    45   100    1
    76    92    93    2
    77    92    96   am
    78    54    53    1
    79    54    55    2
    80    35    58    1
    81    53     2    1
    82    49   100    1
    83    56    55    1
    84    56    57    2
    85   100    96    1
    86   100   102    1
    87    96    98    1
    88    55     4    1
    89    76    95    1
    90    58    36    1
    91    58    57    1
    92    58    37    1
    93    57     6    1
    94    47   101    1
    95    42   102    1
    96   102   101    1
    97   102    99    1
    98    98    95    1
    99    98    43    1
   100    98    99    1
   101    95    97    2
   102   101    46    1
   103   101    50    1
   104    99    44    1
   105    99    48    1
