@<TRIPOS>MOLECULE
139.12138
 102 105 0 0 0
SMALL
GASTEIGER

@<TRIPOS>ATOM
      1 H          27.6970  -12.5050  120.4330 H       1  UNL1        0.0669
      2 H          30.6190  -12.7200  119.4830 H       1  UNL1        0.0619
      3 H          28.5740  -14.7860  120.6240 H       1  UNL1        0.0618
      4 H          31.5100  -15.0200  119.7420 H       1  UNL1        0.0617
      5 H          29.4410  -17.0420  120.9060 H       1  UNL1        0.0614
      6 H          32.3780  -17.3070  120.0420 H       1  UNL1        0.0569
      7 H          25.3420   -3.6280  127.9180 H       1  UNL1        0.0429
      8 H          26.5130   -2.3450  128.2380 H       1  UNL1        0.0429
      9 H          27.0670   -4.0050  127.8340 H       1  UNL1        0.0429
     10 H          27.6580   -2.7110  118.1220 H       1  UNL1        0.0618
     11 H          27.0000  -10.4140  120.6300 H       1  UNL1        0.1498
     12 H          28.8060   -8.1730  120.1630 H       1  UNL1        0.0598
     13 H          26.0810   -8.3320  118.7130 H       1  UNL1        0.0336
     14 H          25.2240   -6.1110  119.0870 H       1  UNL1        0.0620
     15 H          29.3580   -6.6490  117.9580 H       1  UNL1        0.0620
     16 H          25.4790   -3.6700  118.8160 H       1  UNL1        0.0618
     17 H          29.5900   -4.2050  117.6910 H       1  UNL1        0.0618
     18 H          27.6080   -8.5550  117.8930 H       1  UNL1        0.0336
     19 H          27.3540   -8.1420  124.2420 H       1  UNL1        0.0721
     20 H          27.9850   -6.2740  121.3720 H       1  UNL1        0.1496
     21 H          25.6690   -6.7890  123.1300 H       1  UNL1        0.0629
     22 H          27.0190   -6.7090  125.2130 H       1  UNL1        0.0721
     23 H          23.7290   -5.2720  123.4870 H       1  UNL1        0.0465
     24 H          26.1380   -2.2630  123.5640 H       1  UNL1        0.0597
     25 H          24.0490   -1.4410  122.9640 H       1  UNL1        0.0288
     26 H          23.9090   -3.1110  121.3320 H       1  UNL1        0.0281
     27 H          24.4220   -5.3990  121.8440 H       1  UNL1        0.0465
     28 H          23.2300   -2.4090  124.1810 H       1  UNL1        0.0288
     29 H          22.4670   -3.5750  122.2500 H       1  UNL1        0.0281
     30 H          31.4260   -1.5360  127.7570 H       1  UNL1        0.0252
     31 H          29.7200   -2.8150  124.5810 H       1  UNL1        0.1495
     32 H          31.9020   -2.7630  125.0050 H       1  UNL1        0.0592
     33 H          31.4910   -0.6260  126.2380 H       1  UNL1        0.0252
     34 H          32.9080   -1.5230  126.8100 H       1  UNL1        0.0252
     35 H          30.2890  -19.2790  121.2280 H       1  UNL1        0.0272
     36 H          32.0180  -19.2700  121.6190 H       1  UNL1        0.0272
     37 H          31.4800  -19.6950  119.9820 H       1  UNL1        0.0272
     38 H          28.1740   -0.0480  125.5190 H       1  UNL1        0.0252
     39 H          27.7120   -2.3220  124.6990 H       1  UNL1        0.0594
     40 H          27.1650   -0.3350  126.9410 H       1  UNL1        0.0252
     41 H          26.4310   -0.3170  125.3320 H       1  UNL1        0.0252
     42 H          31.1980   -8.1750  125.7380 H       1  UNL1        0.0314
     43 H          30.8390   -4.7320  124.1030 H       1  UNL1        0.0616
     44 H          32.5340   -6.3650  123.6660 H       1  UNL1        0.0292
     45 H          31.9680   -6.7720  127.4470 H       1  UNL1        0.0467
     46 H          34.1120   -7.9080  124.8060 H       1  UNL1        0.0233
     47 H          33.5170   -9.0240  126.0460 H       1  UNL1        0.0233
     48 H          31.0860   -7.3550  123.4500 H       1  UNL1        0.0292
     49 H          33.4040   -6.2540  126.5350 H       1  UNL1        0.0467
     50 H          32.9960   -9.2080  124.3620 H       1  UNL1        0.0233
     51 C          28.8330  -10.7550  119.7090 C.2     1  UNL1        0.2375
     52 C          28.6550  -12.1910  120.0360 C.2     1  UNL1        0.0001
     53 C          29.6620  -13.0620  119.8750 C.2     1  UNL1       -0.0569
     54 C          29.5360  -14.4580  120.2340 C.2     1  UNL1       -0.0616
     55 C          30.5420  -15.3380  120.1250 C.2     1  UNL1       -0.0621
     56 C          30.4060  -16.7240  120.5170 C.2     1  UNL1       -0.0659
     57 C          31.4070  -17.6110  120.4270 C.2     1  UNL1       -0.0871
     58 C          31.2850  -19.0430  120.8390 C.3     1  UNL1       -0.0465
     59 O          29.8230  -10.3060  119.1510 O.2     1  UNL1       -0.2708
     60 N          27.7830   -9.9930  120.1370 N.am    1  UNL1       -0.3002
     61 C          27.7760   -8.5330  120.0570 C.3     1  UNL1        0.1036
     62 C          26.9530   -8.0830  121.2750 C.2     1  UNL1        0.2344
     63 O          26.0650   -8.7920  121.7530 O.2     1  UNL1       -0.2738
     64 C          27.1410   -8.0490  118.7490 C.3     1  UNL1       -0.0006
     65 C          27.2760   -6.5570  118.5500 C.ar    1  UNL1       -0.0451
     66 C          26.1880   -5.7050  118.7850 C.ar    1  UNL1       -0.0585
     67 C          28.5020   -6.0050  118.1570 C.ar    1  UNL1       -0.0585
     68 C          26.3270   -4.3250  118.6360 C.ar    1  UNL1       -0.0615
     69 C          28.6380   -4.6250  118.0050 C.ar    1  UNL1       -0.0615
     70 C          27.5520   -3.7860  118.2470 C.ar    1  UNL1       -0.0617
     71 N          27.2760   -6.8580  121.8050 N.am    1  UNL1       -0.2997
     72 C          26.7010   -6.4290  123.0750 C.3     1  UNL1        0.1340
     73 C          26.7360   -4.8960  123.2030 C.2     1  UNL1        0.2399
     74 O          27.8000   -4.2710  123.2590 O.2     1  UNL1       -0.2734
     75 C          27.4530   -7.0510  124.2670 C.3     1  UNL1        0.1193
     76 O          28.8660   -6.7730  124.1700 O.3     1  UNL1       -0.4610
     77 N          25.5210   -4.2540  123.2420 N.am    1  UNL1       -0.2883
     78 C          25.3490   -2.9450  123.8770 C.3     1  UNL1        0.1025
     79 C          25.3040   -3.2260  125.4080 C.2     1  UNL1        0.2365
     80 O          24.3430   -3.8600  125.8660 O.2     1  UNL1       -0.2735
     81 C          23.9780   -2.4520  123.3820 C.3     1  UNL1       -0.0243
     82 C          23.5520   -3.4540  122.3110 C.3     1  UNL1       -0.0350
     83 C          24.2650   -4.7350  122.6980 C.3     1  UNL1        0.0156
     84 N          26.3810   -2.8770  126.2140 N.am    1  UNL1       -0.2917
     85 C          26.3200   -3.2330  127.6300 C.3     1  UNL1        0.0040
     86 C          27.5690   -2.1270  125.7600 C.3     1  UNL1        0.0991
     87 C          27.3200   -0.6210  125.8940 C.3     1  UNL1       -0.0379
     88 C          28.9240   -2.4470  126.4510 C.2     1  UNL1        0.2339
     89 O          29.0880   -2.3900  127.6660 O.2     1  UNL1       -0.2738
     90 N          29.9530   -2.6940  125.5590 N.am    1  UNL1       -0.3027
     91 C          31.3550   -2.7840  125.9570 C.3     1  UNL1        0.0968
     92 C          31.8230   -4.0960  126.6470 C.2     1  UNL1        0.2363
     93 O          32.5600   -4.0560  127.6390 O.2     1  UNL1       -0.2736
     94 C          31.8150   -1.5460  126.7340 C.3     1  UNL1       -0.0381
     95 C          29.3990   -5.9610  125.1270 C.2     1  UNL1        0.3279
     96 N          31.6310   -5.3010  125.9930 N.am    1  UNL1       -0.2862
     97 O          28.7690   -5.5190  126.0790 O.2     1  UNL1       -0.2487
     98 C          30.8560   -5.5880  124.7820 C.3     1  UNL1        0.1233
     99 C          31.6420   -6.7540  124.1750 C.3     1  UNL1       -0.0199
    100 C          32.3360   -6.4890  126.4550 C.3     1  UNL1        0.0182
    101 C          33.2380   -8.4770  125.1400 C.3     1  UNL1       -0.0609
    102 C          32.0510   -7.5670  125.4080 C.3     1  UNL1       -0.0258
@<TRIPOS>BOND
     1    17    69    1
     2    18    64    1
     3    15    67    1
     4    69    67   ar
     5    69    70   ar
     6    10    70    1
     7    67    65   ar
     8    70    68   ar
     9    65    64    1
    10    65    66   ar
    11    68    66   ar
    12    68    16    1
    13    13    64    1
    14    64    61    1
    15    66    14    1
    16    59    51    2
    17     2    53    1
    18    51    52    1
    19    51    60   am
    20     4    55    1
    21    53    52    2
    22    53    54    1
    23    37    58    1
    24    52     1    1
    25     6    57    1
    26    61    60    1
    27    61    12    1
    28    61    62    1
    29    55    54    2
    30    55    56    1
    31    60    11    1
    32    54     3    1
    33    57    56    2
    34    57    58    1
    35    56     5    1
    36    58    35    1
    37    58    36    1
    38    62    63    2
    39    62    71   am
    40    26    82    1
    41    20    71    1
    42    71    72    1
    43    27    83    1
    44    29    82    1
    45    82    83    1
    46    82    81    1
    47    83    77    1
    48    83    23    1
    49    25    81    1
    50    72    21    1
    51    72    73    1
    52    72    75    1
    53    73    77   am
    54    73    74    2
    55    77    78    1
    56    81    78    1
    57    81    28    1
    58    48    99    1
    59    24    78    1
    60    44    99    1
    61    78    79    1
    62    43    98    1
    63    76    75    1
    64    76    95    1
    65    99    98    1
    66    99   102    1
    67    19    75    1
    68    75    22    1
    69    50   101    1
    70    31    90    1
    71    39    86    1
    72    98    95    1
    73    98    96    1
    74    46   101    1
    75    32    91    1
    76    95    97    2
    77   101   102    1
    78   101    47    1
    79    41    87    1
    80    79    80    2
    81    79    84   am
    82   102    42    1
    83   102   100    1
    84    38    87    1
    85    90    91    1
    86    90    88   am
    87    86    87    1
    88    86    84    1
    89    86    88    1
    90    87    40    1
    91    91    92    1
    92    91    94    1
    93    96   100    1
    94    96    92   am
    95    84    85    1
    96    33    94    1
    97    88    89    2
    98   100    49    1
    99   100    45    1
   100    92    93    2
   101    94    34    1
   102    94    30    1
   103    85     9    1
   104    85     7    1
   105    85     8    1
