@<TRIPOS>MOLECULE
125.55451
 102 105 0 0 0
SMALL
GASTEIGER

@<TRIPOS>ATOM
      1 H          36.0150   -3.0480  118.7570 H       1  UNL1        0.0669
      2 H          38.3760   -1.0680  118.7120 H       1  UNL1        0.0619
      3 H          38.2250   -4.1850  118.7150 H       1  UNL1        0.0618
      4 H          40.5590   -2.1850  118.6160 H       1  UNL1        0.0617
      5 H          40.4060   -5.2980  118.6510 H       1  UNL1        0.0614
      6 H          42.7410   -3.3030  118.5170 H       1  UNL1        0.0569
      7 H          23.8860    2.7270  122.8290 H       1  UNL1        0.0429
      8 H          24.9380    3.6540  123.9210 H       1  UNL1        0.0429
      9 H          24.6960    1.8990  124.1660 H       1  UNL1        0.0429
     10 H          29.9080    4.8930  117.5100 H       1  UNL1        0.0618
     11 H          34.0170   -2.0220  118.6760 H       1  UNL1        0.1498
     12 H          33.7450    0.7220  119.5330 H       1  UNL1        0.0598
     13 H          32.9870   -0.0230  116.6340 H       1  UNL1        0.0336
     14 H          30.8430    0.9110  116.2150 H       1  UNL1        0.0620
     15 H          33.6900    3.1580  118.5600 H       1  UNL1        0.0620
     16 H          29.2880    2.8260  116.2860 H       1  UNL1        0.0618
     17 H          32.1090    5.0530  118.6390 H       1  UNL1        0.0618
     18 H          34.2990    1.0500  117.0540 H       1  UNL1        0.0336
     19 H          29.8630   -0.4300  122.4270 H       1  UNL1        0.0721
     20 H          31.5190    1.1940  120.0580 H       1  UNL1        0.1496
     21 H          29.4480   -0.7040  119.4220 H       1  UNL1        0.0629
     22 H          30.8020   -1.6450  121.5310 H       1  UNL1        0.0721
     23 H          26.7950   -0.4800  119.6310 H       1  UNL1        0.0465
     24 H          27.8020    3.3980  120.4490 H       1  UNL1        0.0597
     25 H          27.3800    2.9430  118.1130 H       1  UNL1        0.0288
     26 H          25.9400    1.0670  117.4690 H       1  UNL1        0.0281
     27 H          27.9020    0.1600  118.3880 H       1  UNL1        0.0465
     28 H          25.7750    3.4440  118.6520 H       1  UNL1        0.0288
     29 H          25.1190    1.0940  119.0390 H       1  UNL1        0.0281
     30 H          23.6440   -1.3870  123.3600 H       1  UNL1        0.0252
     31 H          25.5030    0.2630  122.2300 H       1  UNL1        0.1495
     32 H          26.6010   -2.1400  123.6110 H       1  UNL1        0.0592
     33 H          24.5880   -1.4390  124.8530 H       1  UNL1        0.0252
     34 H          24.2610   -2.9350  123.9550 H       1  UNL1        0.0252
     35 H          42.5570   -6.4040  118.5760 H       1  UNL1        0.0272
     36 H          43.8120   -5.4430  119.3790 H       1  UNL1        0.0272
     37 H          43.7170   -5.4760  117.6080 H       1  UNL1        0.0272
     38 H          28.5010    2.3700  124.9360 H       1  UNL1        0.0252
     39 H          28.0240    2.0160  122.6130 H       1  UNL1        0.0594
     40 H          26.7930    2.5420  125.3330 H       1  UNL1        0.0252
     41 H          27.5950    3.7670  124.3310 H       1  UNL1        0.0252
     42 H          28.4400   -4.2040  119.4510 H       1  UNL1        0.0314
     43 H          27.1960   -4.1120  123.0610 H       1  UNL1        0.0616
     44 H          27.1680   -5.9770  121.5940 H       1  UNL1        0.0292
     45 H          26.3400   -3.1170  119.1680 H       1  UNL1        0.0467
     46 H          26.5330   -6.6020  119.2530 H       1  UNL1        0.0233
     47 H          27.1530   -5.6540  117.8920 H       1  UNL1        0.0233
     48 H          28.8830   -5.5560  121.4230 H       1  UNL1        0.0292
     49 H          25.4270   -4.4490  119.9130 H       1  UNL1        0.0467
     50 H          28.2640   -6.6170  118.8820 H       1  UNL1        0.0233
     51 C          35.7420   -0.8540  118.7790 C.2     1  UNL1        0.2375
     52 C          36.5420   -2.1030  118.7500 C.2     1  UNL1        0.0001
     53 C          37.8810   -2.0390  118.7190 C.2     1  UNL1       -0.0569
     54 C          38.7210   -3.2160  118.6920 C.2     1  UNL1       -0.0616
     55 C          40.0600   -3.1520  118.6410 C.2     1  UNL1       -0.0621
     56 C          40.8990   -4.3290  118.6160 C.2     1  UNL1       -0.0659
     57 C          42.2380   -4.2670  118.5530 C.2     1  UNL1       -0.0871
     58 C          43.1250   -5.4690  118.5280 C.3     1  UNL1       -0.0465
     59 O          36.2420    0.2610  118.8380 O.2     1  UNL1       -0.2708
     60 N          34.3940   -1.0810  118.7280 N.am    1  UNL1       -0.3002
     61 C          33.4270    0.0130  118.7600 C.3     1  UNL1        0.1036
     62 C          32.0750   -0.6030  119.1630 C.2     1  UNL1        0.2344
     63 O          31.7600   -1.7550  118.8640 O.2     1  UNL1       -0.2738
     64 C          33.3130    0.7040  117.3900 C.3     1  UNL1       -0.0006
     65 C          32.3770    1.8910  117.3910 C.ar    1  UNL1       -0.0451
     66 C          31.1330    1.8130  116.7490 C.ar    1  UNL1       -0.0585
     67 C          32.7240    3.0690  118.0650 C.ar    1  UNL1       -0.0585
     68 C          30.2490    2.8910  116.7910 C.ar    1  UNL1       -0.0615
     69 C          31.8350    4.1430  118.1100 C.ar    1  UNL1       -0.0615
     70 C          30.5970    4.0530  117.4760 C.ar    1  UNL1       -0.0617
     71 N          31.2380    0.2350  119.8560 N.am    1  UNL1       -0.2997
     72 C          29.8860   -0.1540  120.2560 C.3     1  UNL1        0.1340
     73 C          29.1340    1.1670  120.5320 C.2     1  UNL1        0.2399
     74 O          29.7330    2.0990  121.0830 O.2     1  UNL1       -0.2734
     75 C          29.8930   -1.0320  121.5120 C.3     1  UNL1        0.1193
     76 O          28.7310   -1.8790  121.4830 O.3     1  UNL1       -0.4610
     77 N          27.8030    1.2860  120.1590 N.am    1  UNL1       -0.2883
     78 C          27.0990    2.5830  120.2400 C.3     1  UNL1        0.1025
     79 C          25.8970    2.7620  121.2380 C.2     1  UNL1        0.2365
     80 O          24.8730    3.3350  120.8360 O.2     1  UNL1       -0.2735
     81 C          26.5610    2.6990  118.8000 C.3     1  UNL1       -0.0243
     82 C          26.0740    1.2770  118.5340 C.3     1  UNL1       -0.0350
     83 C          27.1730    0.4280  119.1590 C.3     1  UNL1        0.0156
     84 N          25.9830    2.4350  122.5850 N.am    1  UNL1       -0.2917
     85 C          24.8060    2.6900  123.4190 C.3     1  UNL1        0.0040
     86 C          27.1770    1.9110  123.2750 C.3     1  UNL1        0.0991
     87 C          27.5320    2.6940  124.5400 C.3     1  UNL1       -0.0379
     88 C          27.0490    0.4020  123.5920 C.2     1  UNL1        0.2339
     89 O          27.8210   -0.1860  124.3460 O.2     1  UNL1       -0.2738
     90 N          26.0670   -0.2590  122.8940 N.am    1  UNL1       -0.3027
     91 C          25.7830   -1.6770  123.0590 C.3     1  UNL1        0.0968
     92 C          25.6220   -2.2760  121.6500 C.2     1  UNL1        0.2363
     93 O          24.7840   -1.8130  120.8690 O.2     1  UNL1       -0.2736
     94 C          24.4960   -1.8710  123.8510 C.3     1  UNL1       -0.0381
     95 C          28.8350   -3.0490  122.1730 C.2     1  UNL1        0.3279
     96 N          26.4780   -3.2820  121.2620 N.am    1  UNL1       -0.2862
     97 O          29.8230   -3.4110  122.8000 O.2     1  UNL1       -0.2487
     98 C          27.5560   -3.8990  122.0500 C.3     1  UNL1        0.1233
     99 C          27.8620   -5.1870  121.2810 C.3     1  UNL1       -0.0199
    100 C          26.3680   -3.8880  119.9450 C.3     1  UNL1        0.0182
    101 C          27.3710   -5.9850  118.9120 C.3     1  UNL1       -0.0609
    102 C          27.5920   -4.7920  119.8250 C.3     1  UNL1       -0.0258
@<TRIPOS>BOND
     1    14    66    1
     2    16    68    1
     3    13    64    1
     4    66    68   ar
     5    66    65   ar
     6    68    70   ar
     7    18    64    1
     8    64    65    1
     9    64    61    1
    10    65    67   ar
    11    26    82    1
    12    70    10    1
    13    70    69   ar
    14    37    58    1
    15    47   101    1
    16    67    69   ar
    17    67    15    1
    18    69    17    1
    19    25    81    1
    20    27    83    1
    21     6    57    1
    22    58    57    1
    23    58    35    1
    24    58    36    1
    25    82    81    1
    26    82    29    1
    27    82    83    1
    28    57    56    2
    29     4    55    1
    30    56    55    1
    31    56     5    1
    32    55    54    2
    33    28    81    1
    34    11    60    1
    35    54     3    1
    36    54    53    1
    37     2    53    1
    38    53    52    2
    39    60    61    1
    40    60    51   am
    41    52     1    1
    42    52    51    1
    43    61    62    1
    44    61    12    1
    45    51    59    2
    46    81    78    1
    47    63    62    2
    48    50   101    1
    49   101    46    1
    50   101   102    1
    51    83    23    1
    52    83    77    1
    53    62    71   am
    54    45   100    1
    55    21    72    1
    56    42   102    1
    57   102   100    1
    58   102    99    1
    59    71    20    1
    60    71    72    1
    61    49   100    1
    62   100    96    1
    63    77    78    1
    64    77    73   am
    65    78    24    1
    66    78    79    1
    67    72    73    1
    68    72    75    1
    69    73    74    2
    70    80    79    2
    71    93    92    2
    72    79    84   am
    73    96    92   am
    74    96    98    1
    75    99    48    1
    76    99    44    1
    77    99    98    1
    78    76    75    1
    79    76    95    1
    80    75    22    1
    81    75    19    1
    82    92    91    1
    83    98    95    1
    84    98    43    1
    85    95    97    2
    86    31    90    1
    87    84    86    1
    88    84    85    1
    89    39    86    1
    90     7    85    1
    91    90    91    1
    92    90    88   am
    93    91    32    1
    94    91    94    1
    95    86    88    1
    96    86    87    1
    97    30    94    1
    98    85     8    1
    99    85     9    1
   100    88    89    2
   101    94    34    1
   102    94    33    1
   103    41    87    1
   104    87    38    1
   105    87    40    1
