@<TRIPOS>MOLECULE
128.26218
 102 105 0 0 0
SMALL
GASTEIGER

@<TRIPOS>ATOM
      1 H          33.9260    6.9680  124.5700 H       1  UNL1        0.0669
      2 H          30.8930    6.9630  125.1170 H       1  UNL1        0.0619
      3 H          33.3660    7.5530  126.9240 H       1  UNL1        0.0618
      4 H          30.3380    7.4410  127.4530 H       1  UNL1        0.0617
      5 H          32.8040    8.0490  129.2590 H       1  UNL1        0.0614
      6 H          29.7800    7.8980  129.7950 H       1  UNL1        0.0569
      7 H          27.6490   -2.3660  122.1050 H       1  UNL1        0.0429
      8 H          26.1220   -1.4950  121.9570 H       1  UNL1        0.0429
      9 H          27.3680   -0.9350  123.1080 H       1  UNL1        0.0429
     10 H          33.1680    5.3290  114.6570 H       1  UNL1        0.0618
     11 H          34.4200    6.4080  122.4650 H       1  UNL1        0.1498
     12 H          32.2330    6.1580  120.4540 H       1  UNL1        0.0598
     13 H          35.2950    6.1930  120.0560 H       1  UNL1        0.0336
     14 H          35.3750    4.5450  118.2530 H       1  UNL1        0.0620
     15 H          32.5000    7.7650  118.1260 H       1  UNL1        0.0620
     16 H          34.8570    4.0050  115.9010 H       1  UNL1        0.0618
     17 H          31.9940    7.2060  115.7760 H       1  UNL1        0.0618
     18 H          34.2840    7.6100  119.9300 H       1  UNL1        0.0336
     19 H          33.3710    1.6540  122.5290 H       1  UNL1        0.0721
     20 H          31.3430    4.1720  120.7110 H       1  UNL1        0.1496
     21 H          32.9700    1.8110  120.2340 H       1  UNL1        0.0629
     22 H          31.8600    0.7230  122.3980 H       1  UNL1        0.0721
     23 H          32.3470   -0.7210  120.2460 H       1  UNL1        0.0465
     24 H          28.7810    0.6990  118.8640 H       1  UNL1        0.0597
     25 H          30.0550   -0.2910  117.1560 H       1  UNL1        0.0288
     26 H          31.9420   -1.6810  117.6240 H       1  UNL1        0.0281
     27 H          32.5700    0.2640  118.7780 H       1  UNL1        0.0465
     28 H          29.2360   -1.7360  117.7770 H       1  UNL1        0.0288
     29 H          31.1930   -2.3770  119.0580 H       1  UNL1        0.0281
     30 H          26.9320    5.2780  123.8020 H       1  UNL1        0.0252
     31 H          26.8460    3.3280  122.1860 H       1  UNL1        0.1495
     32 H          29.4820    3.7090  123.1780 H       1  UNL1        0.0592
     33 H          28.0830    5.6200  122.5040 H       1  UNL1        0.0252
     34 H          28.5730    5.8030  124.2010 H       1  UNL1        0.0252
     35 H          32.2560    8.5060  131.5700 H       1  UNL1        0.0272
     36 H          30.8360    7.5810  132.0890 H       1  UNL1        0.0272
     37 H          30.6810    9.3080  131.7130 H       1  UNL1        0.0272
     38 H          25.4670    2.1050  121.1290 H       1  UNL1        0.0252
     39 H          27.5730    1.4410  120.2260 H       1  UNL1        0.0594
     40 H          25.4670    0.8130  122.3290 H       1  UNL1        0.0252
     41 H          25.2640    0.4340  120.6050 H       1  UNL1        0.0252
     42 H          31.1810    1.4180  127.3720 H       1  UNL1        0.0314
     43 H          30.8820    4.2420  124.7720 H       1  UNL1        0.0616
     44 H          31.4610    4.4380  127.0370 H       1  UNL1        0.0292
     45 H          28.8380    1.6050  127.1440 H       1  UNL1        0.0467
     46 H          30.6540    3.7600  129.2810 H       1  UNL1        0.0233
     47 H          30.4280    2.0430  129.6540 H       1  UNL1        0.0233
     48 H          32.6390    3.1920  126.5890 H       1  UNL1        0.0292
     49 H          28.8100    3.3060  127.6570 H       1  UNL1        0.0467
     50 H          32.0520    2.6740  129.3270 H       1  UNL1        0.0233
     51 C          32.4240    6.4790  123.0180 C.2     1  UNL1        0.2375
     52 C          32.8650    6.8660  124.3810 C.2     1  UNL1        0.0001
     53 C          31.9540    7.0710  125.3430 C.2     1  UNL1       -0.0569
     54 C          32.3090    7.4220  126.7000 C.2     1  UNL1       -0.0616
     55 C          31.3960    7.5750  127.6710 C.2     1  UNL1       -0.0621
     56 C          31.7490    7.9070  129.0320 C.2     1  UNL1       -0.0659
     57 C          30.8380    8.0390  130.0080 C.2     1  UNL1       -0.0871
     58 C          31.1790    8.3780  131.4230 C.3     1  UNL1       -0.0465
     59 O          31.2530    6.2650  122.7350 O.2     1  UNL1       -0.2708
     60 N          33.4650    6.3660  122.1340 N.am    1  UNL1       -0.3002
     61 C          33.2520    5.8970  120.7640 C.3     1  UNL1        0.1036
     62 C          33.4100    4.3680  120.8110 C.2     1  UNL1        0.2344
     63 O          34.4910    3.8160  121.0130 O.2     1  UNL1       -0.2738
     64 C          34.2760    6.5180  119.8070 C.3     1  UNL1       -0.0006
     65 C          33.9820    6.2010  118.3600 C.ar    1  UNL1       -0.0451
     66 C          34.6360    5.1400  117.7190 C.ar    1  UNL1       -0.0585
     67 C          33.0260    6.9400  117.6500 C.ar    1  UNL1       -0.0585
     68 C          34.3440    4.8290  116.3910 C.ar    1  UNL1       -0.0615
     69 C          32.7360    6.6270  116.3210 C.ar    1  UNL1       -0.0615
     70 C          33.3950    5.5720  115.6920 C.ar    1  UNL1       -0.0617
     71 N          32.2310    3.6750  120.7290 N.am    1  UNL1       -0.2997
     72 C          32.1530    2.2200  120.8360 C.3     1  UNL1        0.1340
     73 C          30.8060    1.7730  120.2260 C.2     1  UNL1        0.2399
     74 O          29.8460    2.5500  120.1780 O.2     1  UNL1       -0.2734
     75 C          32.3050    1.7170  122.2820 C.3     1  UNL1        0.1193
     76 O          31.7170    2.6560  123.2030 O.3     1  UNL1       -0.4610
     77 N          30.7200    0.4930  119.7170 N.am    1  UNL1       -0.2883
     78 C          29.4580   -0.0740  119.2270 C.3     1  UNL1        0.1025
     79 C          28.7660   -0.9770  120.2950 C.2     1  UNL1        0.2365
     80 O          29.1680   -2.1390  120.4480 O.2     1  UNL1       -0.2735
     81 C          29.9270   -0.9290  118.0400 C.3     1  UNL1       -0.0243
     82 C          31.2930   -1.4550  118.4760 C.3     1  UNL1       -0.0350
     83 C          31.8560   -0.3400  119.3460 C.3     1  UNL1        0.0156
     84 N          27.7350   -0.4820  121.0910 N.am    1  UNL1       -0.2917
     85 C          27.1960   -1.3720  122.1200 C.3     1  UNL1        0.0040
     86 C          27.3090    0.9390  121.1560 C.3     1  UNL1        0.0991
     87 C          25.7930    1.0770  121.3170 C.3     1  UNL1       -0.0379
     88 C          28.0960    1.6570  122.2850 C.2     1  UNL1        0.2339
     89 O          29.0970    1.1670  122.8090 O.2     1  UNL1       -0.2738
     90 N          27.6710    2.9280  122.6070 N.am    1  UNL1       -0.3027
     91 C          28.4520    3.7440  123.5270 C.3     1  UNL1        0.0968
     92 C          28.3100    3.1890  124.9630 C.2     1  UNL1        0.2363
     93 O          27.1930    2.9510  125.4350 O.2     1  UNL1       -0.2736
     94 C          27.9840    5.1940  123.5080 C.3     1  UNL1       -0.0381
     95 C          31.4870    2.1850  124.4620 C.2     1  UNL1        0.3279
     96 N          29.4560    3.0070  125.7110 N.am    1  UNL1       -0.2862
     97 O          31.7720    1.0620  124.8540 O.2     1  UNL1       -0.2487
     98 C          30.8360    3.2930  125.3140 C.3     1  UNL1        0.1233
     99 C          31.5700    3.4180  126.6530 C.3     1  UNL1       -0.0199
    100 C          29.3760    2.5570  127.0900 C.3     1  UNL1        0.0182
    101 C          30.9980    2.7490  129.0400 C.3     1  UNL1       -0.0609
    102 C          30.8230    2.4370  127.5640 C.3     1  UNL1       -0.0258
@<TRIPOS>BOND
     1    10    70    1
     2    70    69   ar
     3    70    68   ar
     4    17    69    1
     5    16    68    1
     6    69    67   ar
     7    68    66   ar
     8    25    81    1
     9    26    82    1
    10    67    15    1
    11    67    65   ar
    12    66    14    1
    13    66    65   ar
    14    28    81    1
    15    81    82    1
    16    81    78    1
    17    65    64    1
    18    82    29    1
    19    82    83    1
    20    27    83    1
    21    24    78    1
    22    78    77    1
    23    78    79    1
    24    83    77    1
    25    83    23    1
    26    77    73   am
    27    64    18    1
    28    64    13    1
    29    64    61    1
    30    74    73    2
    31    73    72    1
    32    39    86    1
    33    21    72    1
    34    79    80    2
    35    79    84   am
    36    12    61    1
    37    41    87    1
    38    20    71    1
    39    71    62   am
    40    71    72    1
    41    61    62    1
    42    61    60    1
    43    62    63    2
    44    72    75    1
    45    84    86    1
    46    84    85    1
    47    38    87    1
    48    86    87    1
    49    86    88    1
    50    87    40    1
    51     8    85    1
    52     7    85    1
    53    85     9    1
    54    60    11    1
    55    60    51   am
    56    31    90    1
    57    75    22    1
    58    75    19    1
    59    75    76    1
    60    88    90   am
    61    88    89    2
    62    33    94    1
    63    90    91    1
    64    59    51    2
    65    51    52    1
    66    32    91    1
    67    76    95    1
    68    94    91    1
    69    94    30    1
    70    94    34    1
    71    91    92    1
    72    52     1    1
    73    52    53    2
    74    95    97    2
    75    95    98    1
    76    43    98    1
    77    92    93    2
    78    92    96   am
    79     2    53    1
    80    98    96    1
    81    98    99    1
    82    53    54    1
    83    96   100    1
    84    48    99    1
    85    99    44    1
    86    99   102    1
    87    54     3    1
    88    54    55    2
    89   100    45    1
    90   100   102    1
    91   100    49    1
    92    42   102    1
    93     4    55    1
    94   102   101    1
    95    55    56    1
    96    56     5    1
    97    56    57    2
    98   101    46    1
    99   101    50    1
   100   101    47    1
   101     6    57    1
   102    57    58    1
   103    58    35    1
   104    58    37    1
   105    58    36    1
