@<TRIPOS>MOLECULE
121.09940
 102 105 0 0 0
SMALL
GASTEIGER

@<TRIPOS>ATOM
      1 H          29.8990    5.2730  125.8630 H       1  UNL1        0.0669
      2 H          30.9300    5.4500  122.9640 H       1  UNL1        0.0619
      3 H          31.5480    7.1070  125.5330 H       1  UNL1        0.0618
      4 H          32.5040    7.2990  122.6160 H       1  UNL1        0.0617
      5 H          33.1250    8.9500  125.1860 H       1  UNL1        0.0614
      6 H          34.0670    9.1580  122.2670 H       1  UNL1        0.0569
      7 H          24.0430    5.8330  116.3630 H       1  UNL1        0.0429
      8 H          24.7540    4.6670  115.2420 H       1  UNL1        0.0429
      9 H          25.8090    5.7140  116.2260 H       1  UNL1        0.0429
     10 H          32.2890   -1.1690  127.4090 H       1  UNL1        0.0618
     11 H          28.5510    3.5150  126.1750 H       1  UNL1        0.1498
     12 H          28.1080    1.5790  123.9840 H       1  UNL1        0.0598
     13 H          26.8680    0.2740  125.7660 H       1  UNL1        0.0336
     14 H          29.1360   -0.6370  124.5520 H       1  UNL1        0.0620
     15 H          28.9580    1.3520  128.3820 H       1  UNL1        0.0620
     16 H          31.2910   -1.6460  125.1890 H       1  UNL1        0.0618
     17 H          31.1140    0.3280  128.9990 H       1  UNL1        0.0618
     18 H          27.1350    1.5740  126.9070 H       1  UNL1        0.0336
     19 H          24.6960    5.3010  123.9650 H       1  UNL1        0.0721
     20 H          27.0250    3.1110  122.6210 H       1  UNL1        0.1496
     21 H          24.1170    3.0510  123.1250 H       1  UNL1        0.0629
     22 H          23.8260    5.4400  122.4480 H       1  UNL1        0.0721
     23 H          22.2220    3.9980  121.7010 H       1  UNL1        0.0465
     24 H          24.3860    2.0000  118.8590 H       1  UNL1        0.0597
     25 H          22.2490    1.1640  119.0940 H       1  UNL1        0.0288
     26 H          20.5280    2.4120  120.2270 H       1  UNL1        0.0281
     27 H          22.3650    2.2270  121.7630 H       1  UNL1        0.0465
     28 H          21.8530    2.3910  117.8760 H       1  UNL1        0.0288
     29 H          21.1240    3.9490  119.5890 H       1  UNL1        0.0281
     30 H          29.2400    6.7050  118.0670 H       1  UNL1        0.0252
     31 H          26.1100    5.5370  118.4480 H       1  UNL1        0.1495
     32 H          27.9320    5.2610  120.4490 H       1  UNL1        0.0592
     33 H          29.8710    5.2780  118.8990 H       1  UNL1        0.0252
     34 H          29.8240    6.8330  119.7320 H       1  UNL1        0.0252
     35 H          34.6700   10.7800  124.8470 H       1  UNL1        0.0272
     36 H          34.4980   11.4770  123.2260 H       1  UNL1        0.0272
     37 H          35.8570   10.3950  123.5880 H       1  UNL1        0.0272
     38 H          27.4500    2.0740  116.0160 H       1  UNL1        0.0252
     39 H          25.9510    2.3550  117.8760 H       1  UNL1        0.0594
     40 H          27.0110    3.6340  115.3260 H       1  UNL1        0.0252
     41 H          25.8200    2.3180  115.3690 H       1  UNL1        0.0252
     42 H          26.1750    9.1150  123.3860 H       1  UNL1        0.0314
     43 H          28.7020    6.5640  122.0730 H       1  UNL1        0.0616
     44 H          29.1640    8.8060  122.8110 H       1  UNL1        0.0292
     45 H          25.7580    9.2220  121.0710 H       1  UNL1        0.0467
     46 H          28.3270   11.1510  122.5800 H       1  UNL1        0.0233
     47 H          26.6130   11.5040  122.8490 H       1  UNL1        0.0233
     48 H          28.2700    8.2090  124.2220 H       1  UNL1        0.0292
     49 H          27.3900    9.8130  120.6820 H       1  UNL1        0.0467
     50 H          27.6290   10.9600  124.1960 H       1  UNL1        0.0233
     51 C          29.1940    3.9330  124.2530 C.2     1  UNL1        0.2375
     52 C          30.0150    5.0340  124.8140 C.2     1  UNL1        0.0001
     53 C          30.8410    5.7240  124.0140 C.2     1  UNL1       -0.0569
     54 C          31.6270    6.8450  124.4800 C.2     1  UNL1       -0.0616
     55 C          32.4220    7.5590  123.6700 C.2     1  UNL1       -0.0621
     56 C          33.1970    8.6880  124.1320 C.2     1  UNL1       -0.0659
     57 C          33.9860    9.4100  123.3220 C.2     1  UNL1       -0.0871
     58 C          34.7960   10.5800  123.7780 C.3     1  UNL1       -0.0465
     59 O          29.1000    3.7220  123.0490 O.2     1  UNL1       -0.2708
     60 N          28.5300    3.2160  125.2110 N.am    1  UNL1       -0.3002
     61 C          27.6840    2.0750  124.8660 C.3     1  UNL1        0.1036
     62 C          26.2830    2.6000  124.4900 C.2     1  UNL1        0.2344
     63 O          25.3390    2.6370  125.2770 O.2     1  UNL1       -0.2738
     64 C          27.5700    1.0770  126.0300 C.3     1  UNL1       -0.0006
     65 C          28.8880    0.4440  126.4150 C.ar    1  UNL1       -0.0451
     66 C          29.5570   -0.4120  125.5290 C.ar    1  UNL1       -0.0585
     67 C          29.4590    0.7010  127.6690 C.ar    1  UNL1       -0.0585
     68 C          30.7780   -0.9880  125.8860 C.ar    1  UNL1       -0.0615
     69 C          30.6790    0.1230  128.0240 C.ar    1  UNL1       -0.0615
     70 C          31.3390   -0.7190  127.1320 C.ar    1  UNL1       -0.0617
     71 N          26.1850    3.0690  123.2030 N.am    1  UNL1       -0.2997
     72 C          24.9410    3.5880  122.6430 C.3     1  UNL1        0.1340
     73 C          24.9330    3.2620  121.1410 C.2     1  UNL1        0.2399
     74 O          25.9910    3.1080  120.5250 O.2     1  UNL1       -0.2734
     75 C          24.7640    5.0910  122.8910 C.3     1  UNL1        0.1193
     76 O          25.8020    5.8800  122.2750 O.3     1  UNL1       -0.4610
     77 N          23.7250    3.1400  120.4940 N.am    1  UNL1       -0.2883
     78 C          23.6750    2.7950  119.0690 C.3     1  UNL1        0.1025
     79 C          23.8760    4.0440  118.1660 C.2     1  UNL1        0.2365
     80 O          23.0770    4.9850  118.2590 O.2     1  UNL1       -0.2735
     81 C          22.2540    2.2410  118.8830 C.3     1  UNL1       -0.0243
     82 C          21.4320    2.9610  119.9480 C.3     1  UNL1       -0.0350
     83 C          22.4060    3.1020  121.1060 C.3     1  UNL1        0.0156
     84 N          24.9210    4.0920  117.2410 N.am    1  UNL1       -0.2917
     85 C          24.8780    5.1420  116.2200 C.3     1  UNL1        0.0040
     86 C          26.1560    3.2570  117.3030 C.3     1  UNL1        0.0991
     87 C          26.6330    2.7970  115.9240 C.3     1  UNL1       -0.0379
     88 C          27.3310    3.9350  118.0620 C.2     1  UNL1        0.2339
     89 O          28.4250    3.3870  118.1790 O.2     1  UNL1       -0.2738
     90 N          27.0450    5.1670  118.5930 N.am    1  UNL1       -0.3027
     91 C          27.8780    5.8800  119.5510 C.3     1  UNL1        0.0968
     92 C          27.1700    7.2220  119.8360 C.2     1  UNL1        0.2363
     93 O          26.5630    7.8120  118.9350 O.2     1  UNL1       -0.2736
     94 C          29.2800    6.1880  119.0330 C.3     1  UNL1       -0.0381
     95 C          26.8200    6.2970  123.0780 C.2     1  UNL1        0.3279
     96 N          27.2860    7.7810  121.0870 N.am    1  UNL1       -0.2862
     97 O          26.9500    5.9870  124.2570 O.2     1  UNL1       -0.2487
     98 C          27.8310    7.1790  122.3110 C.3     1  UNL1        0.1233
     99 C          28.1990    8.4060  123.1480 C.3     1  UNL1       -0.0199
    100 C          26.8190    9.1380  121.3300 C.3     1  UNL1        0.0182
    101 C          27.4330   10.8340  123.1270 C.3     1  UNL1       -0.0609
    102 C          27.0720    9.3920  122.8160 C.3     1  UNL1       -0.0258
@<TRIPOS>BOND
     1     8    85    1
     2    40    87    1
     3    41    87    1
     4    87    38    1
     5    87    86    1
     6    85     9    1
     7    85     7    1
     8    85    84    1
     9    84    86    1
    10    84    79   am
    11    86    39    1
    12    86    88    1
    13    28    81    1
    14    88    89    2
    15    88    90   am
    16    30    94    1
    17    79    80    2
    18    79    78    1
    19    31    90    1
    20    90    91    1
    21    24    78    1
    22    81    78    1
    23    81    25    1
    24    81    82    1
    25    33    94    1
    26    93    92    2
    27    94    91    1
    28    94    34    1
    29    78    77    1
    30    91    92    1
    31    91    32    1
    32    29    82    1
    33    92    96   am
    34    82    26    1
    35    82    83    1
    36    77    83    1
    37    77    73   am
    38    74    73    2
    39    49   100    1
    40    45   100    1
    41    96   100    1
    42    96    98    1
    43    83    23    1
    44    83    27    1
    45    73    72    1
    46   100   102    1
    47    43    98    1
    48     6    57    1
    49    76    75    1
    50    76    95    1
    51    98    95    1
    52    98    99    1
    53    22    75    1
    54    46   101    1
    55     4    55    1
    56    20    71    1
    57    72    75    1
    58    72    21    1
    59    72    71    1
    60    44    99    1
    61   102   101    1
    62   102    99    1
    63   102    42    1
    64    47   101    1
    65    75    19    1
    66     2    53    1
    67    59    51    2
    68    95    97    2
    69   101    50    1
    70    99    48    1
    71    71    62   am
    72    36    58    1
    73    57    58    1
    74    57    56    2
    75    37    58    1
    76    55    56    1
    77    55    54    2
    78    58    35    1
    79    12    61    1
    80    53    54    1
    81    53    52    2
    82    56     5    1
    83    51    52    1
    84    51    60   am
    85    54     3    1
    86    62    61    1
    87    62    63    2
    88    14    66    1
    89    52     1    1
    90    61    60    1
    91    61    64    1
    92    16    68    1
    93    60    11    1
    94    66    68   ar
    95    66    65   ar
    96    13    64    1
    97    68    70   ar
    98    64    65    1
    99    64    18    1
   100    65    67   ar
   101    70    10    1
   102    70    69   ar
   103    67    69   ar
   104    67    15    1
   105    69    17    1
