@<TRIPOS>MOLECULE
124.24040
 102 105 0 0 0
SMALL
GASTEIGER

@<TRIPOS>ATOM
      1 H          32.3300    4.2030  113.2320 H       1  UNL1        0.0669
      2 H          30.3850    3.9840  110.8500 H       1  UNL1        0.0619
      3 H          30.5190    5.9440  113.2730 H       1  UNL1        0.0618
      4 H          28.5930    5.6270  110.8960 H       1  UNL1        0.0617
      5 H          28.6940    7.6000  113.3040 H       1  UNL1        0.0614
      6 H          26.7750    7.2590  110.9260 H       1  UNL1        0.0569
      7 H          38.2530    1.2780  116.1080 H       1  UNL1        0.0429
      8 H          37.4780    1.5910  117.6680 H       1  UNL1        0.0429
      9 H          36.5090    1.6030  116.1680 H       1  UNL1        0.0429
     10 H          39.1160    4.3300  113.5720 H       1  UNL1        0.0618
     11 H          33.7860    2.4660  113.2930 H       1  UNL1        0.1498
     12 H          33.5260    0.3100  111.3250 H       1  UNL1        0.0598
     13 H          35.1400    1.7210  110.1740 H       1  UNL1        0.0336
     14 H          35.5970    3.9600  111.1400 H       1  UNL1        0.0620
     15 H          37.6260    0.4340  112.5920 H       1  UNL1        0.0620
     16 H          37.2700    5.3740  112.2820 H       1  UNL1        0.0618
     17 H          39.2790    1.8540  113.7140 H       1  UNL1        0.0618
     18 H          35.9420    0.2910  110.7740 H       1  UNL1        0.0336
     19 H          33.8970   -3.9970  114.7260 H       1  UNL1        0.0721
     20 H          34.9880   -1.5960  111.9390 H       1  UNL1        0.1496
     21 H          35.1260   -1.7510  114.8900 H       1  UNL1        0.0629
     22 H          33.3840   -3.4850  113.0880 H       1  UNL1        0.0721
     23 H          38.8010   -3.8740  113.3890 H       1  UNL1        0.0465
     24 H          36.2200   -2.8660  116.3890 H       1  UNL1        0.0597
     25 H          37.9270   -4.3310  117.1120 H       1  UNL1        0.0288
     26 H          39.9340   -4.6230  115.7830 H       1  UNL1        0.0281
     27 H          38.0490   -5.1550  114.3690 H       1  UNL1        0.0465
     28 H          38.8080   -2.8240  117.4290 H       1  UNL1        0.0288
     29 H          39.9130   -2.9250  115.2790 H       1  UNL1        0.0281
     30 H          32.9120    2.1940  115.7600 H       1  UNL1        0.0252
     31 H          34.5790    0.1950  116.3100 H       1  UNL1        0.1495
     32 H          32.5860    0.8470  118.4560 H       1  UNL1        0.0592
     33 H          33.1260    2.8730  117.3560 H       1  UNL1        0.0252
     34 H          31.5100    2.3900  116.8450 H       1  UNL1        0.0252
     35 H          26.8840    9.2130  113.3380 H       1  UNL1        0.0272
     36 H          25.4010    8.5340  112.6440 H       1  UNL1        0.0272
     37 H          26.3920    9.6570  111.6930 H       1  UNL1        0.0272
     38 H          36.7450   -1.1500  120.1480 H       1  UNL1        0.0252
     39 H          35.9670   -1.7350  117.9480 H       1  UNL1        0.0594
     40 H          37.5260    0.3190  119.5630 H       1  UNL1        0.0252
     41 H          38.1540   -1.2630  119.0820 H       1  UNL1        0.0252
     42 H          30.8090   -0.5880  113.0320 H       1  UNL1        0.0314
     43 H          30.1090   -2.2810  116.3860 H       1  UNL1        0.0616
     44 H          28.5540   -1.0660  115.0400 H       1  UNL1        0.0292
     45 H          31.7660    0.9630  114.5030 H       1  UNL1        0.0467
     46 H          28.3490    1.0890  113.7770 H       1  UNL1        0.0233
     47 H          29.5830    1.5250  112.5860 H       1  UNL1        0.0233
     48 H          29.1560   -2.1880  113.8040 H       1  UNL1        0.0292
     49 H          30.2430    1.2520  115.3950 H       1  UNL1        0.0467
     50 H          28.5390    0.1220  112.3060 H       1  UNL1        0.0233
     51 C          32.5050    2.6570  111.6570 C.2     1  UNL1        0.2375
     52 C          31.8880    3.8330  112.3170 C.2     1  UNL1        0.0001
     53 C          30.7970    4.3930  111.7730 C.2     1  UNL1       -0.0569
     54 C          30.1100    5.5230  112.3570 C.2     1  UNL1       -0.0616
     55 C          29.0020    6.0490  111.8120 C.2     1  UNL1       -0.0621
     56 C          28.2950    7.1690  112.3890 C.2     1  UNL1       -0.0659
     57 C          27.1820    7.6830  111.8420 C.2     1  UNL1       -0.0871
     58 C          26.4270    8.8370  112.4170 C.3     1  UNL1       -0.0465
     59 O          32.1320    2.2270  110.5740 O.2     1  UNL1       -0.2708
     60 N          33.5040    2.0900  112.3950 N.am    1  UNL1       -0.3002
     61 C          34.2160    0.8960  111.9460 C.3     1  UNL1        0.1036
     62 C          34.5320    0.0270  113.1780 C.2     1  UNL1        0.2344
     63 O          34.4590    0.4570  114.3320 O.2     1  UNL1       -0.2738
     64 C          35.4550    1.2190  111.0980 C.3     1  UNL1       -0.0006
     65 C          36.4800    2.0910  111.7860 C.ar    1  UNL1       -0.0451
     66 C          36.3960    3.4890  111.7090 C.ar    1  UNL1       -0.0585
     67 C          37.5280    1.5150  112.5140 C.ar    1  UNL1       -0.0585
     68 C          37.3400    4.2920  112.3520 C.ar    1  UNL1       -0.0615
     69 C          38.4710    2.3200  113.1540 C.ar    1  UNL1       -0.0615
     70 C          38.3770    3.7070  113.0750 C.ar    1  UNL1       -0.0617
     71 N          34.8530   -1.2800  112.8950 N.am    1  UNL1       -0.2997
     72 C          34.9910   -2.2840  113.9510 C.3     1  UNL1        0.1340
     73 C          36.1900   -3.1780  113.6330 C.2     1  UNL1        0.2399
     74 O          36.2700   -3.7380  112.5360 O.2     1  UNL1       -0.2734
     75 C          33.7250   -3.1360  114.0700 C.3     1  UNL1        0.1193
     76 O          32.7240   -2.2920  114.6600 O.3     1  UNL1       -0.4610
     77 N          37.1720   -3.2950  114.5920 N.am    1  UNL1       -0.2883
     78 C          37.1900   -2.6780  115.9280 C.3     1  UNL1        0.1025
     79 C          37.4980   -1.1560  115.8380 C.2     1  UNL1        0.2365
     80 O          38.1580   -0.7270  114.8860 O.2     1  UNL1       -0.2735
     81 C          38.3170   -3.4150  116.6520 C.3     1  UNL1       -0.0243
     82 C          39.2800   -3.7850  115.5260 C.3     1  UNL1       -0.0350
     83 C          38.3550   -4.1030  114.3620 C.3     1  UNL1        0.0156
     84 N          37.0430   -0.3010  116.8400 N.am    1  UNL1       -0.2917
     85 C          37.3410    1.1220  116.6900 C.3     1  UNL1        0.0040
     86 C          36.3090   -0.7050  118.0620 C.3     1  UNL1        0.0991
     87 C          37.2380   -0.6990  119.2790 C.3     1  UNL1       -0.0379
     88 C          35.0100    0.0910  118.3530 C.2     1  UNL1        0.2339
     89 O          34.6230    0.2980  119.5020 O.2     1  UNL1       -0.2738
     90 N          34.2290    0.3730  117.2520 N.am    1  UNL1       -0.3027
     91 C          32.8170    0.7440  117.3870 C.3     1  UNL1        0.0968
     92 C          31.9870   -0.5020  116.9680 C.2     1  UNL1        0.2363
     93 O          32.1390   -1.5500  117.6180 O.2     1  UNL1       -0.2736
     94 C          32.5670    2.1160  116.7940 C.3     1  UNL1       -0.0381
     95 C          31.4900   -2.8290  114.8400 C.2     1  UNL1        0.3279
     96 N          31.1820   -0.5390  115.8540 N.am    1  UNL1       -0.2862
     97 O          31.1680   -3.9560  114.4840 O.2     1  UNL1       -0.2487
     98 C          30.5300   -1.8110  115.4900 C.3     1  UNL1        0.1233
     99 C          29.4490   -1.3930  114.4960 C.3     1  UNL1       -0.0199
    100 C          30.8590    0.5010  114.8910 C.3     1  UNL1        0.0182
    101 C          29.0820    0.6830  113.0730 C.3     1  UNL1       -0.0609
    102 C          30.0930   -0.2080  113.7720 C.3     1  UNL1       -0.0258
@<TRIPOS>BOND
     1    13    64    1
     2    59    51    2
     3    18    64    1
     4     2    53    1
     5     4    55    1
     6     6    57    1
     7    64    65    1
     8    64    61    1
     9    14    66    1
    10    12    61    1
    11    51    52    1
    12    51    60   am
    13    37    58    1
    14    66    65   ar
    15    66    68   ar
    16    53    52    2
    17    53    54    1
    18    65    67   ar
    19    55    54    2
    20    55    56    1
    21    57    56    2
    22    57    58    1
    23    20    71    1
    24    61    60    1
    25    61    62    1
    26    16    68    1
    27    50   101    1
    28    52     1    1
    29    68    70   ar
    30    54     3    1
    31    56     5    1
    32    60    11    1
    33    58    36    1
    34    58    35    1
    35    67    15    1
    36    67    69   ar
    37    74    73    2
    38    47   101    1
    39    71    62   am
    40    71    72    1
    41    42   102    1
    42   101   102    1
    43   101    46    1
    44    70    69   ar
    45    70    10    1
    46    22    75    1
    47    69    17    1
    48    62    63    2
    49    23    83    1
    50    73    72    1
    51    73    77   am
    52   102    99    1
    53   102   100    1
    54    48    99    1
    55    72    75    1
    56    72    21    1
    57    75    76    1
    58    75    19    1
    59    83    27    1
    60    83    77    1
    61    83    82    1
    62    97    95    2
    63    99    44    1
    64    99    98    1
    65    45   100    1
    66    77    78    1
    67    76    95    1
    68    95    98    1
    69    80    79    2
    70   100    49    1
    71   100    96    1
    72    29    82    1
    73    98    96    1
    74    98    43    1
    75    82    26    1
    76    82    81    1
    77    30    94    1
    78    79    78    1
    79    79    84   am
    80    96    92   am
    81    78    24    1
    82    78    81    1
    83     7    85    1
    84     9    85    1
    85    31    90    1
    86    81    25    1
    87    81    28    1
    88    85    84    1
    89    85     8    1
    90    94    34    1
    91    94    33    1
    92    94    91    1
    93    84    86    1
    94    92    91    1
    95    92    93    2
    96    90    91    1
    97    90    88   am
    98    91    32    1
    99    39    86    1
   100    86    88    1
   101    86    87    1
   102    88    89    2
   103    41    87    1
   104    87    40    1
   105    87    38    1
