@<TRIPOS>MOLECULE
136.64881
 102 105 0 0 0
SMALL
GASTEIGER

@<TRIPOS>ATOM
      1 H          33.1840    3.4690  115.6610 H       1  UNL1        0.0669
      2 H          34.9410    3.7530  118.1750 H       1  UNL1        0.0619
      3 H          35.5340    2.8590  115.2440 H       1  UNL1        0.0618
      4 H          37.3070    3.2020  117.7330 H       1  UNL1        0.0617
      5 H          37.8620    2.2750  114.8080 H       1  UNL1        0.0614
      6 H          39.6610    2.6560  117.2700 H       1  UNL1        0.0569
      7 H          28.8380    0.9300  125.1530 H       1  UNL1        0.0429
      8 H          28.3140    2.2800  126.1860 H       1  UNL1        0.0429
      9 H          30.0480    2.0190  125.8670 H       1  UNL1        0.0429
     10 H          24.8930    7.2620  119.9180 H       1  UNL1        0.0618
     11 H          31.0620    3.9490  116.0220 H       1  UNL1        0.1498
     12 H          30.1930    5.0230  118.6670 H       1  UNL1        0.0598
     13 H          28.5680    4.8110  116.0520 H       1  UNL1        0.0336
     14 H          26.3620    4.4930  116.9910 H       1  UNL1        0.0620
     15 H          28.9890    7.4950  118.6560 H       1  UNL1        0.0620
     16 H          24.5230    5.3410  118.3910 H       1  UNL1        0.0618
     17 H          27.1270    8.3350  120.0420 H       1  UNL1        0.0618
     18 H          29.4940    6.2380  116.4560 H       1  UNL1        0.0336
     19 H          28.5800   -0.0750  120.0450 H       1  UNL1        0.0721
     20 H          28.2140    4.0040  119.5650 H       1  UNL1        0.1496
     21 H          27.5740    1.3520  118.6520 H       1  UNL1        0.0629
     22 H          28.3840    0.9380  121.4570 H       1  UNL1        0.0721
     23 H          24.5430    2.6810  122.1340 H       1  UNL1        0.0465
     24 H          28.4570    3.7140  121.6770 H       1  UNL1        0.0597
     25 H          26.9890    5.6380  121.9730 H       1  UNL1        0.0288
     26 H          24.7830    5.3650  122.9320 H       1  UNL1        0.0281
     27 H          24.6580    4.0260  120.9770 H       1  UNL1        0.0465
     28 H          27.3400    5.2640  123.6640 H       1  UNL1        0.0288
     29 H          25.3130    3.9920  123.9140 H       1  UNL1        0.0281
     30 H          33.1800    1.4970  125.9940 H       1  UNL1        0.0252
     31 H          31.0910    1.7990  123.7930 H       1  UNL1        0.1495
     32 H          33.7180    3.0300  123.3930 H       1  UNL1        0.0592
     33 H          33.4800    3.2340  125.8770 H       1  UNL1        0.0252
     34 H          34.7590    2.0910  125.4550 H       1  UNL1        0.0252
     35 H          40.1670    1.7110  114.3540 H       1  UNL1        0.0272
     36 H          40.9750    1.0600  115.7900 H       1  UNL1        0.0272
     37 H          41.2680    2.7370  115.2910 H       1  UNL1        0.0272
     38 H          29.9620    5.9410  125.3120 H       1  UNL1        0.0252
     39 H          29.5330    4.6220  123.3340 H       1  UNL1        0.0594
     40 H          29.9160    4.5250  126.3630 H       1  UNL1        0.0252
     41 H          28.4290    5.1030  125.6050 H       1  UNL1        0.0252
     42 H          32.2510   -1.0030  119.8390 H       1  UNL1        0.0314
     43 H          32.4600    2.5320  121.2890 H       1  UNL1        0.0616
     44 H          33.7380    1.6390  119.4570 H       1  UNL1        0.0292
     45 H          33.5350   -1.4030  121.7780 H       1  UNL1        0.0467
     46 H          35.0480   -0.3560  118.7490 H       1  UNL1        0.0233
     47 H          34.3560   -1.9760  118.9340 H       1  UNL1        0.0233
     48 H          32.1050    1.2410  118.9020 H       1  UNL1        0.0292
     49 H          34.8770   -0.3670  121.2430 H       1  UNL1        0.0467
     50 H          33.6410   -0.8300  117.7850 H       1  UNL1        0.0233
     51 C          32.3670    4.1120  117.6110 C.2     1  UNL1        0.2375
     52 C          33.4460    3.6760  116.6910 C.2     1  UNL1        0.0001
     53 C          34.7030    3.5350  117.1340 C.2     1  UNL1       -0.0569
     54 C          35.7830    3.0940  116.2780 C.2     1  UNL1       -0.0616
     55 C          37.0490    2.9670  116.7020 C.2     1  UNL1       -0.0621
     56 C          38.1180    2.5230  115.8360 C.2     1  UNL1       -0.0659
     57 C          39.3900    2.4100  116.2460 C.2     1  UNL1       -0.0871
     58 C          40.5080    1.9530  115.3650 C.3     1  UNL1       -0.0465
     59 O          32.5340    4.2740  118.8130 O.2     1  UNL1       -0.2708
     60 N          31.1660    4.2810  116.9720 N.am    1  UNL1       -0.3002
     61 C          29.9350    4.5310  117.7210 C.3     1  UNL1        0.1036
     62 C          29.3200    3.1530  118.0380 C.2     1  UNL1        0.2344
     63 O          29.5170    2.1650  117.3310 O.2     1  UNL1       -0.2738
     64 C          28.9600    5.3870  116.9010 C.3     1  UNL1       -0.0006
     65 C          27.8150    5.9310  117.7220 C.ar    1  UNL1       -0.0451
     66 C          26.5470    5.3380  117.6540 C.ar    1  UNL1       -0.0585
     67 C          28.0160    7.0110  118.5910 C.ar    1  UNL1       -0.0585
     68 C          25.5020    5.8120  118.4480 C.ar    1  UNL1       -0.0615
     69 C          26.9670    7.4890  119.3780 C.ar    1  UNL1       -0.0615
     70 C          25.7110    6.8880  119.3080 C.ar    1  UNL1       -0.0617
     71 N          28.4970    3.1280  119.1420 N.am    1  UNL1       -0.2997
     72 C          27.8360    1.8930  119.5720 C.3     1  UNL1        0.1340
     73 C          26.5010    2.2330  120.2500 C.2     1  UNL1        0.2399
     74 O          25.4540    1.8070  119.7480 O.2     1  UNL1       -0.2734
     75 C          28.7040    0.9500  120.4150 C.3     1  UNL1        0.1193
     76 O          30.0990    1.2850  120.2860 O.3     1  UNL1       -0.4610
     77 N          26.4610    3.0520  121.3590 N.am    1  UNL1       -0.2883
     78 C          27.5360    3.5620  122.2400 C.3     1  UNL1        0.1025
     79 C          27.8330    2.5950  123.4310 C.2     1  UNL1        0.2365
     80 O          27.0900    1.6280  123.6330 O.2     1  UNL1       -0.2735
     81 C          26.9100    4.8650  122.7460 C.3     1  UNL1       -0.0243
     82 C          25.4450    4.4940  122.9490 C.3     1  UNL1       -0.0350
     83 C          25.1600    3.5260  121.8130 C.3     1  UNL1        0.0156
     84 N          28.9200    2.8480  124.2750 N.am    1  UNL1       -0.2917
     85 C          29.0460    1.9670  125.4350 C.3     1  UNL1        0.0040
     86 C          29.7780    4.0540  124.2340 C.3     1  UNL1        0.0991
     87 C          29.5010    4.9560  125.4450 C.3     1  UNL1       -0.0379
     88 C          31.3100    3.8410  124.1260 C.2     1  UNL1        0.2339
     89 O          32.0830    4.7980  124.1930 O.2     1  UNL1       -0.2738
     90 N          31.7600    2.5620  123.9080 N.am    1  UNL1       -0.3027
     91 C          33.1880    2.2450  123.9470 C.3     1  UNL1        0.0968
     92 C          33.5870    0.8990  123.2810 C.2     1  UNL1        0.2363
     93 O          34.3470    0.1110  123.8540 O.2     1  UNL1       -0.2736
     94 C          33.6800    2.2700  125.3990 C.3     1  UNL1       -0.0381
     95 C          30.8860    1.0590  121.3640 C.2     1  UNL1        0.3279
     96 N          33.2280    0.6660  121.9690 N.am    1  UNL1       -0.2862
     97 O          30.4680    0.6740  122.4530 O.2     1  UNL1       -0.2487
     98 C          32.3500    1.4610  121.0980 C.3     1  UNL1        0.1233
     99 C          32.8320    1.0700  119.7000 C.3     1  UNL1       -0.0199
    100 C          33.7860   -0.4740  121.2550 C.3     1  UNL1        0.0182
    101 C          34.1100   -0.9220  118.7700 C.3     1  UNL1       -0.0609
    102 C          33.1770   -0.4140  119.8560 C.3     1  UNL1       -0.0258
@<TRIPOS>BOND
     1    35    58    1
     2     5    56    1
     3     3    54    1
     4    37    58    1
     5    58    36    1
     6    58    57    1
     7     1    52    1
     8    56    57    2
     9    56    55    1
    10    11    60    1
    11    13    64    1
    12    57     6    1
    13    54    55    2
    14    54    53    1
    15    18    64    1
    16    52    53    2
    17    52    51    1
    18    55     4    1
    19    64    61    1
    20    64    65    1
    21    60    51   am
    22    60    61    1
    23    14    66    1
    24    53     2    1
    25    63    62    2
    26    51    59    2
    27    66    65   ar
    28    66    68   ar
    29    61    62    1
    30    61    12    1
    31    65    67   ar
    32    50   101    1
    33    62    71   am
    34    16    68    1
    35    68    70   ar
    36    67    15    1
    37    67    69   ar
    38    21    72    1
    39    46   101    1
    40   101    47    1
    41   101   102    1
    42    48    99    1
    43    71    20    1
    44    71    72    1
    45    70    69   ar
    46    70    10    1
    47    69    17    1
    48    44    99    1
    49    72    73    1
    50    72    75    1
    51    99   102    1
    52    99    98    1
    53    74    73    2
    54    42   102    1
    55   102   100    1
    56    19    75    1
    57    73    77   am
    58    76    75    1
    59    76    95    1
    60    75    22    1
    61    27    83    1
    62    98    43    1
    63    98    95    1
    64    98    96    1
    65    49   100    1
    66   100    45    1
    67   100    96    1
    68    77    83    1
    69    77    78    1
    70    95    97    2
    71    24    78    1
    72    83    23    1
    73    83    82    1
    74    96    92   am
    75    25    81    1
    76    78    81    1
    77    78    79    1
    78    81    82    1
    79    81    28    1
    80    26    82    1
    81    82    29    1
    82    92    93    2
    83    92    91    1
    84    39    86    1
    85    32    91    1
    86    79    80    2
    87    79    84   am
    88    31    90    1
    89    90    91    1
    90    90    88   am
    91    91    94    1
    92    88    89    2
    93    88    86    1
    94    86    84    1
    95    86    87    1
    96    84    85    1
    97     7    85    1
    98    38    87    1
    99    94    34    1
   100    94    33    1
   101    94    30    1
   102    85     9    1
   103    85     8    1
   104    87    41    1
   105    87    40    1
