@<TRIPOS>MOLECULE
127.82568
 102 105 0 0 0
SMALL
GASTEIGER

@<TRIPOS>ATOM
      1 H          34.3180    1.3520  125.7110 H       1  UNL1        0.0669
      2 H          32.3700    3.7100  125.3230 H       1  UNL1        0.0619
      3 H          33.8070    2.5600  127.8400 H       1  UNL1        0.0618
      4 H          31.7780    4.8320  127.4080 H       1  UNL1        0.0617
      5 H          33.2200    3.7110  129.9320 H       1  UNL1        0.0614
      6 H          31.1640    5.9540  129.4940 H       1  UNL1        0.0569
      7 H          24.3910   -1.5990  120.2950 H       1  UNL1        0.0429
      8 H          23.9620    0.0900  120.0240 H       1  UNL1        0.0429
      9 H          24.7980   -0.3940  121.5270 H       1  UNL1        0.0429
     10 H          35.6070    0.0250  115.8030 H       1  UNL1        0.0618
     11 H          34.8620    0.3850  123.7660 H       1  UNL1        0.1498
     12 H          33.7770    1.5000  121.2170 H       1  UNL1        0.0598
     13 H          36.0280   -0.5690  121.6260 H       1  UNL1        0.0336
     14 H          35.4850   -1.9000  119.6370 H       1  UNL1        0.0620
     15 H          35.7640    2.4000  119.3730 H       1  UNL1        0.0620
     16 H          35.4760   -2.0400  117.1730 H       1  UNL1        0.0618
     17 H          35.7490    2.2390  116.9100 H       1  UNL1        0.0618
     18 H          36.3190    1.1450  121.4960 H       1  UNL1        0.0336
     19 H          31.0320   -2.4310  123.0860 H       1  UNL1        0.0721
     20 H          31.6780    0.7230  121.4180 H       1  UNL1        0.1496
     21 H          31.4370   -2.1170  120.7670 H       1  UNL1        0.0629
     22 H          29.4450   -2.4010  122.3400 H       1  UNL1        0.0721
     23 H          29.4170   -3.5880  120.1010 H       1  UNL1        0.0465
     24 H          28.2400   -0.1350  118.2630 H       1  UNL1        0.0597
     25 H          29.0430   -1.7220  116.7350 H       1  UNL1        0.0288
     26 H          29.3240   -4.0240  117.3230 H       1  UNL1        0.0281
     27 H          30.6460   -2.9820  118.9610 H       1  UNL1        0.0465
     28 H          27.3500   -2.2410  116.8160 H       1  UNL1        0.0288
     29 H          27.9030   -4.0270  118.3640 H       1  UNL1        0.0281
     30 H          28.2850    4.3850  123.5070 H       1  UNL1        0.0252
     31 H          27.8220    3.0080  121.2810 H       1  UNL1        0.1495
     32 H          29.5410    1.6620  122.8690 H       1  UNL1        0.0592
     33 H          29.6980    4.0980  122.4830 H       1  UNL1        0.0252
     34 H          29.7820    3.7800  124.2260 H       1  UNL1        0.0252
     35 H          32.6180    4.8250  131.9960 H       1  UNL1        0.0272
     36 H          30.9330    5.3740  131.9610 H       1  UNL1        0.0272
     37 H          32.2510    6.5370  131.7200 H       1  UNL1        0.0272
     38 H          26.0880    3.1590  119.9810 H       1  UNL1        0.0252
     39 H          27.3980    1.2460  119.3740 H       1  UNL1        0.0594
     40 H          24.8800    2.1810  120.8080 H       1  UNL1        0.0252
     41 H          25.0310    2.1060  119.0390 H       1  UNL1        0.0252
     42 H          29.0930   -1.3340  126.7630 H       1  UNL1        0.0314
     43 H          30.5960    1.6980  125.0320 H       1  UNL1        0.0616
     44 H          30.3940    1.3680  127.3720 H       1  UNL1        0.0292
     45 H          27.1220   -0.1550  126.1200 H       1  UNL1        0.0467
     46 H          28.7570    0.6150  129.1140 H       1  UNL1        0.0233
     47 H          27.8690   -0.9010  128.8890 H       1  UNL1        0.0233
     48 H          31.2190   -0.1520  126.9890 H       1  UNL1        0.0292
     49 H          27.5840    1.3120  127.0140 H       1  UNL1        0.0467
     50 H          29.6200   -0.9310  129.1590 H       1  UNL1        0.0233
     51 C          33.4440    1.8880  123.7490 C.2     1  UNL1        0.2375
     52 C          33.6620    2.0520  125.2080 C.2     1  UNL1        0.0001
     53 C          33.0230    3.0290  125.8670 C.2     1  UNL1       -0.0569
     54 C          33.1390    3.2250  127.2950 C.2     1  UNL1       -0.0616
     55 C          32.4500    4.1700  127.9510 C.2     1  UNL1       -0.0621
     56 C          32.5460    4.3620  129.3800 C.2     1  UNL1       -0.0659
     57 C          31.8420    5.2980  130.0350 C.2     1  UNL1       -0.0871
     58 C          31.9200    5.5150  131.5110 C.3     1  UNL1       -0.0465
     59 O          32.5660    2.4870  123.1400 O.2     1  UNL1       -0.2708
     60 N          34.3040    0.9900  123.1770 N.am    1  UNL1       -0.3002
     61 C          34.2240    0.6560  121.7560 C.3     1  UNL1        0.1036
     62 C          33.2960   -0.5670  121.6370 C.2     1  UNL1        0.2344
     63 O          33.6840   -1.7240  121.7900 O.2     1  UNL1       -0.2738
     64 C          35.6200    0.3540  121.1940 C.3     1  UNL1       -0.0006
     65 C          35.6330    0.2610  119.6860 C.ar    1  UNL1       -0.0451
     66 C          35.5490   -0.9850  119.0500 C.ar    1  UNL1       -0.0585
     67 C          35.7010    1.4210  118.9030 C.ar    1  UNL1       -0.0585
     68 C          35.5400   -1.0690  117.6570 C.ar    1  UNL1       -0.0615
     69 C          35.6930    1.3350  117.5100 C.ar    1  UNL1       -0.0615
     70 C          35.6120    0.0910  116.8880 C.ar    1  UNL1       -0.0617
     71 N          31.9720   -0.2500  121.4460 N.am    1  UNL1       -0.2997
     72 C          30.9460   -1.2680  121.2520 C.3     1  UNL1        0.1340
     73 C          29.8940   -0.7010  120.2720 C.2     1  UNL1        0.2399
     74 O          29.7260    0.5200  120.1650 O.2     1  UNL1       -0.2734
     75 C          30.3210   -1.7820  122.5600 C.3     1  UNL1        0.1193
     76 O          29.8650   -0.7330  123.4380 O.3     1  UNL1       -0.4610
     77 N          29.1830   -1.5920  119.4930 N.am    1  UNL1       -0.2883
     78 C          28.0980   -1.1610  118.6010 C.3     1  UNL1        0.1025
     79 C          26.6900   -1.3590  119.2430 C.2     1  UNL1        0.2365
     80 O          26.1910   -2.4920  119.2580 O.2     1  UNL1       -0.2735
     81 C          28.2640   -2.1090  117.4030 C.3     1  UNL1       -0.0243
     82 C          28.7470   -3.4160  118.0270 C.3     1  UNL1       -0.0350
     83 C          29.5810   -2.9660  119.2170 C.3     1  UNL1        0.0156
     84 N          26.0120   -0.2850  119.8190 N.am    1  UNL1       -0.2917
     85 C          24.7230   -0.5690  120.4510 C.3     1  UNL1        0.0040
     86 C          26.6100    1.0440  120.0990 C.3     1  UNL1        0.0991
     87 C          25.5930    2.1830  119.9760 C.3     1  UNL1       -0.0379
     88 C          27.2840    1.0200  121.4960 C.2     1  UNL1        0.2339
     89 O          27.4130   -0.0160  122.1480 O.2     1  UNL1       -0.2738
     90 N          27.8050    2.2280  121.9220 N.am    1  UNL1       -0.3027
     91 C          28.6740    2.2850  123.0930 C.3     1  UNL1        0.0968
     92 C          27.9320    1.7760  124.3500 C.2     1  UNL1        0.2363
     93 O          26.7550    2.0890  124.5630 O.2     1  UNL1       -0.2736
     94 C          29.1370    3.7160  123.3430 C.3     1  UNL1       -0.0381
     95 C          30.6990   -0.3400  124.4320 C.2     1  UNL1        0.3279
     96 N          28.6400    1.0080  125.2540 N.am    1  UNL1       -0.2862
     97 O          31.8420   -0.7590  124.5910 O.2     1  UNL1       -0.2487
     98 C          30.0900    0.7720  125.3120 C.3     1  UNL1        0.1233
     99 C          30.3190    0.4390  126.7920 C.3     1  UNL1       -0.0199
    100 C          27.9670    0.4710  126.4250 C.3     1  UNL1        0.0182
    101 C          28.8080   -0.3850  128.6680 C.3     1  UNL1       -0.0609
    102 C          29.0410   -0.3160  127.1700 C.3     1  UNL1       -0.0258
@<TRIPOS>BOND
     1    10    70    1
     2    25    81    1
     3    28    81    1
     4    70    69   ar
     5    70    68   ar
     6    17    69    1
     7    16    68    1
     8    26    82    1
     9    81    82    1
    10    81    78    1
    11    69    67   ar
    12    68    66   ar
    13    82    29    1
    14    82    83    1
    15    24    78    1
    16    78    79    1
    17    78    77    1
    18    67    15    1
    19    67    65   ar
    20    27    83    1
    21    41    87    1
    22    66    14    1
    23    66    65   ar
    24    83    77    1
    25    83    23    1
    26    79    80    2
    27    79    84   am
    28    39    86    1
    29    77    73   am
    30    65    64    1
    31    84    86    1
    32    84    85    1
    33    87    38    1
    34    87    86    1
    35    87    40    1
    36     8    85    1
    37    86    88    1
    38    74    73    2
    39    73    72    1
    40     7    85    1
    41    85     9    1
    42    21    72    1
    43    64    18    1
    44    64    13    1
    45    64    61    1
    46    12    61    1
    47    72    71    1
    48    72    75    1
    49    31    90    1
    50    20    71    1
    51    71    62   am
    52    88    90   am
    53    88    89    2
    54    62    61    1
    55    62    63    2
    56    61    60    1
    57    90    91    1
    58    22    75    1
    59    33    94    1
    60    75    19    1
    61    75    76    1
    62    32    91    1
    63    91    94    1
    64    91    92    1
    65    59    51    2
    66    60    51   am
    67    60    11    1
    68    94    30    1
    69    94    34    1
    70    76    95    1
    71    51    52    1
    72    92    93    2
    73    92    96   am
    74    95    97    2
    75    95    98    1
    76    43    98    1
    77    52     1    1
    78    52    53    2
    79    96    98    1
    80    96   100    1
    81    98    99    1
    82     2    53    1
    83    53    54    1
    84    45   100    1
    85   100    49    1
    86   100   102    1
    87    42   102    1
    88    99    48    1
    89    99   102    1
    90    99    44    1
    91   102   101    1
    92    54     3    1
    93    54    55    2
    94     4    55    1
    95    55    56    1
    96   101    47    1
    97   101    46    1
    98   101    50    1
    99    56     5    1
   100    56    57    2
   101     6    57    1
   102    57    58    1
   103    58    37    1
   104    58    36    1
   105    58    35    1
