@<TRIPOS>MOLECULE
151.55582
 102 105 0 0 0
SMALL
GASTEIGER

@<TRIPOS>ATOM
      1 H          23.7360   -4.3040  116.8040 H       1  UNL1        0.0669
      2 H          21.2740   -2.7930  115.7340 H       1  UNL1        0.0619
      3 H          23.9650   -3.6640  114.4170 H       1  UNL1        0.0618
      4 H          21.5350   -2.0780  113.3980 H       1  UNL1        0.0617
      5 H          24.2160   -2.9700  112.0820 H       1  UNL1        0.0614
      6 H          21.8110   -1.3430  111.0730 H       1  UNL1        0.0569
      7 H          27.6950   -0.5100  125.3360 H       1  UNL1        0.0429
      8 H          28.3230    1.0900  125.7380 H       1  UNL1        0.0429
      9 H          28.3390    0.5120  124.0480 H       1  UNL1        0.0429
     10 H          19.8770   -5.2880  126.0600 H       1  UNL1        0.0618
     11 H          23.6810   -4.4910  119.0300 H       1  UNL1        0.1498
     12 H          21.1910   -3.7480  120.4920 H       1  UNL1        0.0598
     13 H          23.1790   -5.9840  121.2590 H       1  UNL1        0.0336
     14 H          23.4040   -5.4300  123.6220 H       1  UNL1        0.0620
     15 H          19.4920   -5.5920  121.7970 H       1  UNL1        0.0620
     16 H          22.3480   -5.2820  125.8450 H       1  UNL1        0.0618
     17 H          18.4570   -5.4450  124.0330 H       1  UNL1        0.0618
     18 H          21.6100   -6.2890  120.5540 H       1  UNL1        0.0336
     19 H          24.3070   -0.7800  120.8910 H       1  UNL1        0.0721
     20 H          21.5950   -2.3290  122.1970 H       1  UNL1        0.1496
     21 H          24.1300   -1.9410  123.3350 H       1  UNL1        0.0629
     22 H          25.0680   -0.1020  122.3110 H       1  UNL1        0.0721
     23 H          21.5570   -0.6110  126.3810 H       1  UNL1        0.0465
     24 H          23.9450    1.5680  123.9210 H       1  UNL1        0.0597
     25 H          23.0810    2.8180  125.6750 H       1  UNL1        0.0288
     26 H          22.1790    1.7150  127.6400 H       1  UNL1        0.0281
     27 H          21.0800    0.9250  125.6150 H       1  UNL1        0.0465
     28 H          24.5420    2.3260  126.5520 H       1  UNL1        0.0288
     29 H          23.4020    0.4310  127.5420 H       1  UNL1        0.0281
     30 H          25.9210    1.3500  120.0060 H       1  UNL1        0.0252
     31 H          25.1770    3.8620  122.3710 H       1  UNL1        0.1495
     32 H          26.9030    4.1640  120.4520 H       1  UNL1        0.0592
     33 H          27.4820    2.0800  119.6770 H       1  UNL1        0.0252
     34 H          26.1430    2.3840  118.5810 H       1  UNL1        0.0252
     35 H          24.4870   -2.2590  109.7860 H       1  UNL1        0.0272
     36 H          23.7140   -0.6870  109.5100 H       1  UNL1        0.0272
     37 H          22.9290   -2.1750  108.9430 H       1  UNL1        0.0272
     38 H          27.2860    4.4900  124.4580 H       1  UNL1        0.0252
     39 H          25.4460    2.9400  124.3410 H       1  UNL1        0.0594
     40 H          28.4640    3.1940  124.6430 H       1  UNL1        0.0252
     41 H          27.2800    3.4980  125.9300 H       1  UNL1        0.0252
     42 H          21.4520    2.7040  118.4030 H       1  UNL1        0.0314
     43 H          23.2090    3.2410  121.7500 H       1  UNL1        0.0616
     44 H          21.0850    3.9730  121.1580 H       1  UNL1        0.0292
     45 H          23.0000    4.4540  117.8610 H       1  UNL1        0.0467
     46 H          19.9620    5.2300  119.3140 H       1  UNL1        0.0233
     47 H          20.0960    4.6480  117.6470 H       1  UNL1        0.0233
     48 H          20.8270    2.2770  120.7100 H       1  UNL1        0.0292
     49 H          22.4590    5.4820  119.2090 H       1  UNL1        0.0467
     50 H          19.2150    3.6930  118.8520 H       1  UNL1        0.0233
     51 C          21.9680   -3.8530  118.0540 C.2     1  UNL1        0.2375
     52 C          22.7570   -3.8430  116.7970 C.2     1  UNL1        0.0001
     53 C          22.2590   -3.2560  115.6990 C.2     1  UNL1       -0.0569
     54 C          22.9870   -3.1880  114.4510 C.2     1  UNL1       -0.0616
     55 C          22.5100   -2.5620  113.3650 C.2     1  UNL1       -0.0621
     56 C          23.2440   -2.4820  112.1230 C.2     1  UNL1       -0.0659
     57 C          22.7800   -1.8370  111.0420 C.2     1  UNL1       -0.0871
     58 C          23.5250   -1.7380  109.7510 C.3     1  UNL1       -0.0465
     59 O          20.8040   -3.4800  118.1140 O.2     1  UNL1       -0.2708
     60 N          22.6900   -4.3010  119.1270 N.am    1  UNL1       -0.3002
     61 C          22.1880   -4.2010  120.4970 C.3     1  UNL1        0.1036
     62 C          23.1730   -3.2670  121.2180 C.2     1  UNL1        0.2344
     63 O          24.3930   -3.3740  121.0860 O.2     1  UNL1       -0.2738
     64 C          22.1630   -5.5740  121.1770 C.3     1  UNL1       -0.0006
     65 C          21.5240   -5.5320  122.5450 C.ar    1  UNL1       -0.0451
     66 C          22.3180   -5.4440  123.6980 C.ar    1  UNL1       -0.0585
     67 C          20.1290   -5.5320  122.6770 C.ar    1  UNL1       -0.0585
     68 C          21.7260   -5.3580  124.9580 C.ar    1  UNL1       -0.0615
     69 C          19.5400   -5.4480  123.9390 C.ar    1  UNL1       -0.0615
     70 C          20.3380   -5.3600  125.0780 C.ar    1  UNL1       -0.0617
     71 N          22.5970   -2.3070  122.0100 N.am    1  UNL1       -0.2997
     72 C          23.3830   -1.3450  122.7970 C.3     1  UNL1        0.1340
     73 C          22.3910   -0.7590  123.8360 C.2     1  UNL1        0.2399
     74 O          21.2060   -1.1270  123.8110 O.2     1  UNL1       -0.2734
     75 C          24.0950   -0.3500  121.8760 C.3     1  UNL1        0.1193
     76 O          23.3820    0.8920  121.7720 O.3     1  UNL1       -0.4610
     77 N          22.8120    0.0880  124.8370 N.am    1  UNL1       -0.2883
     78 C          23.9540    1.0100  124.8550 C.3     1  UNL1        0.1025
     79 C          25.3380    0.3590  125.0420 C.2     1  UNL1        0.2365
     80 O          25.4200   -0.8050  125.4400 O.2     1  UNL1       -0.2735
     81 C          23.6530    1.9530  126.0340 C.3     1  UNL1       -0.0243
     82 C          22.7780    1.1130  126.9520 C.3     1  UNL1       -0.0350
     83 C          21.9310    0.3310  125.9680 C.3     1  UNL1        0.0156
     84 N          26.4660    1.1430  124.7750 N.am    1  UNL1       -0.2917
     85 C          27.7750    0.5210  124.9820 C.3     1  UNL1        0.0040
     86 C          26.4370    2.5110  124.1860 C.3     1  UNL1        0.0991
     87 C          27.4250    3.4740  124.8450 C.3     1  UNL1       -0.0379
     88 C          26.7030    2.4950  122.6580 C.2     1  UNL1        0.2339
     89 O          27.6570    1.8970  122.1700 O.2     1  UNL1       -0.2738
     90 N          25.8080    3.2310  121.8960 N.am    1  UNL1       -0.3027
     91 C          26.0350    3.4910  120.4690 C.3     1  UNL1        0.0968
     92 C          24.9070    4.2740  119.7440 C.2     1  UNL1        0.2363
     93 O          25.2250    5.2070  118.9960 O.2     1  UNL1       -0.2736
     94 C          26.4020    2.2580  119.6380 C.3     1  UNL1       -0.0381
     95 C          23.2790    1.4620  120.5400 C.2     1  UNL1        0.3279
     96 N          23.5960    3.8490  119.7920 N.am    1  UNL1       -0.2862
     97 O          23.4650    0.9050  119.4710 O.2     1  UNL1       -0.2487
     98 C          22.9350    2.9400  120.7340 C.3     1  UNL1        0.1233
     99 C          21.4380    3.1630  120.5080 C.3     1  UNL1       -0.0199
    100 C          22.6210    4.4460  118.8880 C.3     1  UNL1        0.0182
    101 C          20.0880    4.3350  118.6960 C.3     1  UNL1       -0.0609
    102 C          21.3660    3.5930  119.0420 C.3     1  UNL1       -0.0258
@<TRIPOS>BOND
     1    37    58    1
     2    36    58    1
     3    58    35    1
     4    58    57    1
     5    57     6    1
     6    57    56    2
     7     5    56    1
     8    56    55    1
     9    55     4    1
    10    55    54    2
    11     3    54    1
    12    54    53    1
    13    53     2    1
    14    53    52    2
    15    52     1    1
    16    52    51    1
    17    47   101    1
    18    45   100    1
    19    51    59    2
    20    51    60   am
    21    42   102    1
    22    34    94    1
    23   101    50    1
    24   101   102    1
    25   101    46    1
    26   100   102    1
    27   100    49    1
    28   100    96    1
    29    93    92    2
    30    11    60    1
    31   102    99    1
    32    60    61    1
    33    97    95    2
    34    94    33    1
    35    94    30    1
    36    94    91    1
    37    92    96   am
    38    92    91    1
    39    96    98    1
    40    32    91    1
    41    91    90    1
    42    12    61    1
    43    61    64    1
    44    61    62    1
    45    99    48    1
    46    99    98    1
    47    99    44    1
    48    95    98    1
    49    95    76    1
    50    18    64    1
    51    98    43    1
    52    19    75    1
    53    63    62    2
    54    64    13    1
    55    64    65    1
    56    62    71   am
    57    76    75    1
    58    15    67    1
    59    75    22    1
    60    75    72    1
    61    90    31    1
    62    90    88   am
    63    71    20    1
    64    71    72    1
    65    89    88    2
    66    65    67   ar
    67    65    66   ar
    68    88    86    1
    69    67    69   ar
    70    72    21    1
    71    72    73    1
    72    14    66    1
    73    66    68   ar
    74    74    73    2
    75    73    77   am
    76    24    78    1
    77    69    17    1
    78    69    70   ar
    79     9    85    1
    80    86    39    1
    81    86    84    1
    82    86    87    1
    83    38    87    1
    84    40    87    1
    85    84    85    1
    86    84    79   am
    87    77    78    1
    88    77    83    1
    89    87    41    1
    90    78    79    1
    91    78    81    1
    92    68    70   ar
    93    68    16    1
    94    85     7    1
    95    85     8    1
    96    79    80    2
    97    70    10    1
    98    27    83    1
    99    25    81    1
   100    83    23    1
   101    83    82    1
   102    81    28    1
   103    81    82    1
   104    82    29    1
   105    82    26    1
