@<TRIPOS>MOLECULE
114.07275
 102 105 0 0 0
SMALL
GASTEIGER

@<TRIPOS>ATOM
      1 H          34.1130    3.7600  118.6660 H       1  UNL1        0.0669
      2 H          36.1620    5.0220  120.5880 H       1  UNL1        0.0619
      3 H          36.3970    3.0650  118.1670 H       1  UNL1        0.0618
      4 H          38.4740    4.2360  120.1090 H       1  UNL1        0.0617
      5 H          38.6500    2.2970  117.6730 H       1  UNL1        0.0614
      6 H          40.7470    3.4090  119.6240 H       1  UNL1        0.0569
      7 H          28.5640    5.1510  117.1230 H       1  UNL1        0.0429
      8 H          27.5160    4.7060  115.7600 H       1  UNL1        0.0429
      9 H          28.9040    3.6730  116.2020 H       1  UNL1        0.0429
     10 H          27.2670    9.0310  123.7270 H       1  UNL1        0.0618
     11 H          32.0330    4.0100  119.3510 H       1  UNL1        0.1498
     12 H          31.3210    5.3110  121.7830 H       1  UNL1        0.0598
     13 H          30.3340    6.7720  119.2500 H       1  UNL1        0.0336
     14 H          28.0670    7.2660  119.9030 H       1  UNL1        0.0620
     15 H          31.2670    7.8110  122.7510 H       1  UNL1        0.0620
     16 H          26.4830    8.2590  121.5030 H       1  UNL1        0.0618
     17 H          29.6610    8.8130  124.3410 H       1  UNL1        0.0618
     18 H          31.6580    7.3850  120.2130 H       1  UNL1        0.0336
     19 H          27.3560    1.5500  122.6410 H       1  UNL1        0.0721
     20 H          28.9820    4.9840  122.2310 H       1  UNL1        0.1496
     21 H          27.8790    2.8530  120.4710 H       1  UNL1        0.0629
     22 H          28.5380    2.5970  123.4270 H       1  UNL1        0.0721
     23 H          24.5400    5.7440  121.4690 H       1  UNL1        0.0465
     24 H          26.0070    2.4210  119.6030 H       1  UNL1        0.0597
     25 H          23.6750    2.6660  119.3280 H       1  UNL1        0.0288
     26 H          22.6100    4.8040  119.7490 H       1  UNL1        0.0281
     27 H          23.7880    4.1570  121.7590 H       1  UNL1        0.0465
     28 H          24.1480    3.6060  117.8980 H       1  UNL1        0.0288
     29 H          24.0170    5.6880  119.1340 H       1  UNL1        0.0281
     30 H          31.3490    1.8750  116.3210 H       1  UNL1        0.0252
     31 H          29.2360    2.4880  118.3200 H       1  UNL1        0.1495
     32 H          30.1320   -0.3090  118.0770 H       1  UNL1        0.0592
     33 H          30.5050    0.4240  115.7740 H       1  UNL1        0.0252
     34 H          32.0660    0.2790  116.5970 H       1  UNL1        0.0252
     35 H          40.8700    1.4880  117.1840 H       1  UNL1        0.0272
     36 H          41.8290    1.3100  118.6640 H       1  UNL1        0.0272
     37 H          42.1040    2.6950  117.5880 H       1  UNL1        0.0272
     38 H          25.9620    1.0820  115.4300 H       1  UNL1        0.0252
     39 H          26.1410    1.7540  117.7320 H       1  UNL1        0.0594
     40 H          27.0880    2.3320  114.9020 H       1  UNL1        0.0252
     41 H          25.5000    2.7880  115.5450 H       1  UNL1        0.0252
     42 H          31.4220    0.5510  123.1900 H       1  UNL1        0.0314
     43 H          30.0500   -1.0810  119.9560 H       1  UNL1        0.0616
     44 H          31.7030   -1.9300  121.4350 H       1  UNL1        0.0292
     45 H          32.3730    1.8980  121.5260 H       1  UNL1        0.0467
     46 H          33.8300   -1.2170  122.5080 H       1  UNL1        0.0233
     47 H          33.8420    0.1930  123.5800 H       1  UNL1        0.0233
     48 H          30.4300   -1.5690  122.6180 H       1  UNL1        0.0292
     49 H          33.3350    0.5740  120.8350 H       1  UNL1        0.0467
     50 H          32.9090   -1.2480  124.0210 H       1  UNL1        0.0233
     51 C          33.5090    5.1190  120.2930 C.2     1  UNL1        0.2375
     52 C          34.4940    4.3630  119.4820 C.2     1  UNL1        0.0001
     53 C          35.8040    4.4120  119.7600 C.2     1  UNL1       -0.0569
     54 C          36.7760    3.6580  118.9990 C.2     1  UNL1       -0.0616
     55 C          38.0880    3.6500  119.2770 C.2     1  UNL1       -0.0621
     56 C          39.0370    2.8750  118.5100 C.2     1  UNL1       -0.0659
     57 C          40.3480    2.8380  118.7890 C.2     1  UNL1       -0.0871
     58 C          41.3380    2.0360  118.0080 C.3     1  UNL1       -0.0465
     59 O          33.8280    5.9340  121.1480 O.2     1  UNL1       -0.2708
     60 N          32.2170    4.7830  119.9960 N.am    1  UNL1       -0.3002
     61 C          31.0750    5.3450  120.7150 C.3     1  UNL1        0.1036
     62 C          29.8860    4.4040  120.4520 C.2     1  UNL1        0.2344
     63 O          29.7700    3.7600  119.4070 O.2     1  UNL1       -0.2738
     64 C          30.7460    6.7760  120.2680 C.3     1  UNL1       -0.0006
     65 C          29.7840    7.4600  121.2120 C.ar    1  UNL1       -0.0451
     66 C          28.4330    7.6050  120.8700 C.ar    1  UNL1       -0.0585
     67 C          30.2200    7.9070  122.4670 C.ar    1  UNL1       -0.0585
     68 C          27.5310    8.1660  121.7740 C.ar    1  UNL1       -0.0615
     69 C          29.3170    8.4720  123.3680 C.ar    1  UNL1       -0.0615
     70 C          27.9720    8.5980  123.0230 C.ar    1  UNL1       -0.0617
     71 N          28.9700    4.3090  121.4690 N.am    1  UNL1       -0.2997
     72 C          27.9100    3.3030  121.4620 C.3     1  UNL1        0.1340
     73 C          26.5800    3.9710  121.8160 C.2     1  UNL1        0.2399
     74 O          26.4060    4.4630  122.9330 O.2     1  UNL1       -0.2734
     75 C          28.2270    2.1890  122.4580 C.3     1  UNL1        0.1193
     76 O          29.3440    1.4370  121.9370 O.3     1  UNL1       -0.4610
     77 N          25.6300    4.0630  120.8210 N.am    1  UNL1       -0.2883
     78 C          25.6830    3.4570  119.4840 C.3     1  UNL1        0.1025
     79 C          26.6280    4.2310  118.5270 C.2     1  UNL1        0.2365
     80 O          26.8100    5.4420  118.6850 O.2     1  UNL1       -0.2735
     81 C          24.2390    3.5430  118.9860 C.3     1  UNL1       -0.0243
     82 C          23.7010    4.7920  119.6810 C.3     1  UNL1       -0.0350
     83 C          24.3710    4.7490  121.0450 C.3     1  UNL1        0.0156
     84 N          27.2200    3.5450  117.4660 N.am    1  UNL1       -0.2917
     85 C          28.1060    4.3110  116.5920 C.3     1  UNL1        0.0040
     86 C          26.9160    2.1500  117.0730 C.3     1  UNL1        0.0991
     87 C          26.3330    2.0870  115.6570 C.3     1  UNL1       -0.0379
     88 C          28.0870    1.1430  117.2040 C.2     1  UNL1        0.2339
     89 O          28.0020    0.0040  116.7430 O.2     1  UNL1       -0.2738
     90 N          29.1930    1.5460  117.9170 N.am    1  UNL1       -0.3027
     91 C          30.4090    0.7370  117.9340 C.3     1  UNL1        0.0968
     92 C          31.3920    1.1930  119.0380 C.2     1  UNL1        0.2363
     93 O          32.1860    2.1190  118.8350 O.2     1  UNL1       -0.2736
     94 C          31.1230    0.8340  116.5800 C.3     1  UNL1       -0.0381
     95 C          29.0700    0.2610  121.3080 C.2     1  UNL1        0.3279
     96 N          31.3370    0.5750  120.2710 N.am    1  UNL1       -0.2862
     97 O          27.9650   -0.2670  121.2840 O.2     1  UNL1       -0.2487
     98 C          30.3460   -0.3940  120.7510 C.3     1  UNL1        0.1233
     99 C          31.0930   -1.1260  121.8680 C.3     1  UNL1       -0.0199
    100 C          32.3630    0.8330  121.2710 C.3     1  UNL1        0.0182
    101 C          33.2150   -0.6130  123.1840 C.3     1  UNL1       -0.0609
    102 C          32.0000   -0.0430  122.4710 C.3     1  UNL1       -0.0258
@<TRIPOS>BOND
     1    40    87    1
     2    38    87    1
     3    41    87    1
     4    87    86    1
     5     8    85    1
     6    33    94    1
     7     9    85    1
     8    30    94    1
     9    94    34    1
    10    94    91    1
    11    85     7    1
    12    85    84    1
    13    89    88    2
    14    86    88    1
    15    86    84    1
    16    86    39    1
    17    35    58    1
    18    88    90   am
    19    84    79   am
    20    37    58    1
    21     5    56    1
    22    28    81    1
    23    90    91    1
    24    90    31    1
    25    91    32    1
    26    91    92    1
    27    58    36    1
    28    58    57    1
    29     3    54    1
    30    56    57    2
    31    56    55    1
    32    79    80    2
    33    79    78    1
    34     1    52    1
    35    57     6    1
    36    93    92    2
    37    81    25    1
    38    81    78    1
    39    81    82    1
    40    54    55    2
    41    54    53    1
    42    92    96   am
    43    29    82    1
    44    13    64    1
    45    55     4    1
    46    11    60    1
    47    63    62    2
    48    52    53    2
    49    52    51    1
    50    78    24    1
    51    78    77    1
    52    82    26    1
    53    82    83    1
    54    53     2    1
    55    14    66    1
    56    43    98    1
    57    60    51   am
    58    60    61    1
    59    18    64    1
    60    64    61    1
    61    64    65    1
    62    96    98    1
    63    96   100    1
    64    51    59    2
    65    62    61    1
    66    62    71   am
    67    21    72    1
    68    61    12    1
    69    98    95    1
    70    98    99    1
    71    77    83    1
    72    77    73   am
    73    49   100    1
    74    66    65   ar
    75    66    68   ar
    76    83    23    1
    77    83    27    1
    78    65    67   ar
    79   100    45    1
    80   100   102    1
    81    97    95    2
    82    95    76    1
    83    44    99    1
    84    72    71    1
    85    72    73    1
    86    72    75    1
    87    71    20    1
    88    16    68    1
    89    68    70   ar
    90    73    74    2
    91    99   102    1
    92    99    48    1
    93    76    75    1
    94    75    19    1
    95    75    22    1
    96    67    15    1
    97    67    69   ar
    98   102   101    1
    99   102    42    1
   100    46   101    1
   101    70    69   ar
   102    70    10    1
   103   101    47    1
   104   101    50    1
   105    69    17    1
