@<TRIPOS>MOLECULE
150.50898
 102 105 0 0 0
SMALL
GASTEIGER

@<TRIPOS>ATOM
      1 H          33.6610    2.7690  114.5090 H       1  UNL1        0.0669
      2 H          34.8910    0.8460  116.5760 H       1  UNL1        0.0619
      3 H          35.5520    1.4770  113.5920 H       1  UNL1        0.0618
      4 H          36.8250   -0.3960  115.6720 H       1  UNL1        0.0617
      5 H          37.4410    0.2300  112.6800 H       1  UNL1        0.0614
      6 H          38.7470   -1.6260  114.7530 H       1  UNL1        0.0569
      7 H          23.7870    0.5390  124.1060 H       1  UNL1        0.0429
      8 H          25.1400    1.2270  125.0270 H       1  UNL1        0.0429
      9 H          25.3020   -0.3620  124.2230 H       1  UNL1        0.0429
     10 H          34.0570    9.4120  117.2600 H       1  UNL1        0.0618
     11 H          31.9740    3.9610  115.3160 H       1  UNL1        0.1498
     12 H          31.4650    4.0540  118.2090 H       1  UNL1        0.0598
     13 H          29.5900    5.6710  117.5150 H       1  UNL1        0.0336
     14 H          31.4750    6.5480  119.1350 H       1  UNL1        0.0620
     15 H          31.6610    6.8150  114.8280 H       1  UNL1        0.0620
     16 H          33.1300    8.3650  119.3080 H       1  UNL1        0.0618
     17 H          33.3180    8.6310  115.0260 H       1  UNL1        0.0618
     18 H          30.0150    5.4060  115.8430 H       1  UNL1        0.0336
     19 H          29.3130    0.3840  118.3700 H       1  UNL1        0.0721
     20 H          29.3380    3.6530  119.1640 H       1  UNL1        0.1496
     21 H          27.4870    1.9410  117.6850 H       1  UNL1        0.0629
     22 H          27.8120    0.0080  119.2460 H       1  UNL1        0.0721
     23 H          25.5470    0.2350  118.9750 H       1  UNL1        0.0465
     24 H          25.1470    3.7340  121.0570 H       1  UNL1        0.0597
     25 H          23.6500    3.5090  119.1930 H       1  UNL1        0.0288
     26 H          23.0540    1.2850  118.3500 H       1  UNL1        0.0281
     27 H          25.3540    1.6350  117.8950 H       1  UNL1        0.0465
     28 H          22.6480    2.8200  120.4770 H       1  UNL1        0.0288
     29 H          23.4000    0.5470  119.9250 H       1  UNL1        0.0281
     30 H          26.4110   -3.1680  122.0190 H       1  UNL1        0.0252
     31 H          28.8720   -0.5630  122.9980 H       1  UNL1        0.1495
     32 H          29.3920   -2.6370  122.4050 H       1  UNL1        0.0592
     33 H          27.2720   -3.1820  123.5650 H       1  UNL1        0.0252
     34 H          27.6830   -4.3540  122.3000 H       1  UNL1        0.0252
     35 H          39.3160   -0.9890  111.7660 H       1  UNL1        0.0272
     36 H          39.4800   -2.5870  112.5140 H       1  UNL1        0.0272
     37 H          40.5610   -1.2660  112.9980 H       1  UNL1        0.0272
     38 H          28.7620    1.4550  123.6670 H       1  UNL1        0.0252
     39 H          27.1660    1.8350  121.9510 H       1  UNL1        0.0594
     40 H          27.5930    0.6070  124.6860 H       1  UNL1        0.0252
     41 H          27.4210    2.3460  124.3880 H       1  UNL1        0.0252
     42 H          31.1160   -0.5260  117.6680 H       1  UNL1        0.0314
     43 H          30.9550   -1.4610  121.4040 H       1  UNL1        0.0616
     44 H          32.5390   -2.1070  119.8500 H       1  UNL1        0.0292
     45 H          29.3030   -2.0710  117.7350 H       1  UNL1        0.0467
     46 H          32.6420   -3.1820  117.6140 H       1  UNL1        0.0233
     47 H          31.8640   -2.4000  116.2280 H       1  UNL1        0.0233
     48 H          32.6540   -0.3720  119.5160 H       1  UNL1        0.0292
     49 H          30.3000   -3.3640  118.4330 H       1  UNL1        0.0467
     50 H          33.2400   -1.6210  117.0290 H       1  UNL1        0.0233
     51 C          32.8850    2.5840  116.5700 C.2     1  UNL1        0.2375
     52 C          33.8010    2.2540  115.4500 C.2     1  UNL1        0.0001
     53 C          34.7720    1.3430  115.6150 C.2     1  UNL1       -0.0569
     54 C          35.6890    0.9870  114.5540 C.2     1  UNL1       -0.0616
     55 C          36.6790    0.0960  114.7120 C.2     1  UNL1       -0.0621
     56 C          37.5890   -0.2540  113.6440 C.2     1  UNL1       -0.0659
     57 C          38.5880   -1.1360  113.7950 C.2     1  UNL1       -0.0871
     58 C          39.5360   -1.5110  112.7020 C.3     1  UNL1       -0.0465
     59 O          32.9070    2.0030  117.6470 O.2     1  UNL1       -0.2708
     60 N          32.0090    3.5910  116.2550 N.am    1  UNL1       -0.3002
     61 C          31.0050    4.0430  117.2120 C.3     1  UNL1        0.1036
     62 C          29.8450    3.0300  117.2320 C.2     1  UNL1        0.2344
     63 O          29.5610    2.3020  116.2820 O.2     1  UNL1       -0.2738
     64 C          30.4340    5.4250  116.8580 C.3     1  UNL1       -0.0006
     65 C          31.4480    6.5390  116.9670 C.ar    1  UNL1       -0.0451
     66 C          31.8720    6.9910  118.2250 C.ar    1  UNL1       -0.0585
     67 C          31.9770    7.1390  115.8160 C.ar    1  UNL1       -0.0585
     68 C          32.8080    8.0210  118.3280 C.ar    1  UNL1       -0.0615
     69 C          32.9140    8.1690  115.9220 C.ar    1  UNL1       -0.0615
     70 C          33.3290    8.6090  117.1780 C.ar    1  UNL1       -0.0617
     71 N          29.1030    3.0390  118.3870 N.am    1  UNL1       -0.2997
     72 C          28.0220    2.0820  118.6280 C.3     1  UNL1        0.1340
     73 C          27.0810    2.6970  119.6850 C.2     1  UNL1        0.2399
     74 O          27.4610    3.6560  120.3680 O.2     1  UNL1       -0.2734
     75 C          28.6020    0.7480  119.1100 C.3     1  UNL1        0.1193
     76 O          29.2550    0.9570  120.3800 O.3     1  UNL1       -0.4610
     77 N          25.8360    2.1250  119.8720 N.am    1  UNL1       -0.2883
     78 C          24.8630    2.7040  120.8110 C.3     1  UNL1        0.1025
     79 C          24.5090    2.0310  122.1850 C.2     1  UNL1        0.2365
     80 O          23.3910    2.2820  122.6690 O.2     1  UNL1       -0.2735
     81 C          23.5910    2.7050  119.9380 C.3     1  UNL1       -0.0243
     82 C          23.6880    1.3520  119.2380 C.3     1  UNL1       -0.0350
     83 C          25.1690    1.2570  118.9050 C.3     1  UNL1        0.0156
     84 N          25.4100    1.3140  122.9590 N.am    1  UNL1       -0.2917
     85 C          24.8750    0.6420  124.1420 C.3     1  UNL1        0.0040
     86 C          26.8470    1.1130  122.6890 C.3     1  UNL1        0.0991
     87 C          27.7000    1.3910  123.9300 C.3     1  UNL1       -0.0379
     88 C          27.0390   -0.2990  122.0590 C.2     1  UNL1        0.2339
     89 O          26.2170   -0.7700  121.2720 O.2     1  UNL1       -0.2738
     90 N          28.2050   -0.9740  122.3590 N.am    1  UNL1       -0.3027
     91 C          28.4440   -2.3530  121.9300 C.3     1  UNL1        0.0968
     92 C          28.6620   -2.5470  120.4000 C.2     1  UNL1        0.2363
     93 O          28.0000   -3.3700  119.7610 O.2     1  UNL1       -0.2736
     94 C          27.3910   -3.3150  122.4840 C.3     1  UNL1       -0.0381
     95 C          30.4720    0.4480  120.6630 C.2     1  UNL1        0.3279
     96 N          29.7250   -1.8950  119.7880 N.am    1  UNL1       -0.2862
     97 O          31.2840    1.1340  121.2840 O.2     1  UNL1       -0.2487
     98 C          30.7420   -1.0470  120.4120 C.3     1  UNL1        0.1233
     99 C          31.9730   -1.2280  119.5150 C.3     1  UNL1       -0.0199
    100 C          30.1170   -2.2830  118.4360 C.3     1  UNL1        0.0182
    101 C          32.3370   -2.2160  117.1980 C.3     1  UNL1       -0.0609
    102 C          31.3820   -1.4850  118.1270 C.3     1  UNL1       -0.0258
@<TRIPOS>BOND
     1    35    58    1
     2    36    58    1
     3     5    56    1
     4    58    37    1
     5    58    57    1
     6     3    54    1
     7    56    57    2
     8    56    55    1
     9    57     6    1
    10     1    52    1
    11    54    55    2
    12    54    53    1
    13    55     4    1
    14    15    67    1
    15    17    69    1
    16    11    60    1
    17    52    53    2
    18    52    51    1
    19    53     2    1
    20    67    69   ar
    21    67    65   ar
    22    18    64    1
    23    69    70   ar
    24    47   101    1
    25    60    51   am
    26    60    61    1
    27    63    62    2
    28    51    59    2
    29    64    65    1
    30    64    61    1
    31    64    13    1
    32    65    66   ar
    33    50   101    1
    34    70    10    1
    35    70    68   ar
    36   101    46    1
    37   101   102    1
    38    61    62    1
    39    61    12    1
    40    62    71   am
    41    42   102    1
    42    21    72    1
    43    45   100    1
    44    27    83    1
    45   102   100    1
    46   102    99    1
    47    66    68   ar
    48    66    14    1
    49    68    16    1
    50    26    82    1
    51    19    75    1
    52    71    72    1
    53    71    20    1
    54    49   100    1
    55   100    96    1
    56    72    75    1
    57    72    73    1
    58    83    23    1
    59    83    82    1
    60    83    77    1
    61    75    22    1
    62    75    76    1
    63    25    81    1
    64    82    29    1
    65    82    81    1
    66    99    48    1
    67    99    44    1
    68    99    98    1
    69    73    77   am
    70    73    74    2
    71    93    92    2
    72    96    92   am
    73    96    98    1
    74    77    78    1
    75    81    28    1
    76    81    78    1
    77    76    95    1
    78    92    91    1
    79    98    95    1
    80    98    43    1
    81    95    97    2
    82    78    24    1
    83    78    79    1
    84    89    88    2
    85    91    90    1
    86    91    32    1
    87    91    94    1
    88    39    86    1
    89    30    94    1
    90    88    90   am
    91    88    86    1
    92    79    80    2
    93    79    84   am
    94    34    94    1
    95    90    31    1
    96    94    33    1
    97    86    84    1
    98    86    87    1
    99    84    85    1
   100    38    87    1
   101    87    41    1
   102    87    40    1
   103     7    85    1
   104    85     9    1
   105    85     8    1
