@<TRIPOS>MOLECULE
131.88956
 102 105 0 0 0
SMALL
GASTEIGER

@<TRIPOS>ATOM
      1 H          32.3550    1.4210  116.6980 H       1  UNL1        0.0669
      2 H          34.7420    0.1540  118.1740 H       1  UNL1        0.0619
      3 H          33.2390   -0.5580  115.5330 H       1  UNL1        0.0618
      4 H          35.6230   -1.8340  116.9970 H       1  UNL1        0.0617
      5 H          34.0870   -2.5280  114.3740 H       1  UNL1        0.0614
      6 H          36.4730   -3.8210  115.8170 H       1  UNL1        0.0569
      7 H          26.4410    2.6580  122.7180 H       1  UNL1        0.0429
      8 H          25.4220    1.7650  123.8670 H       1  UNL1        0.0429
      9 H          25.8310    1.0530  122.2800 H       1  UNL1        0.0429
     10 H          33.1560    8.6260  115.6370 H       1  UNL1        0.0618
     11 H          31.3390    2.9900  117.9030 H       1  UNL1        0.1498
     12 H          32.8040    4.3240  120.1200 H       1  UNL1        0.0598
     13 H          30.7910    5.8410  120.1700 H       1  UNL1        0.0336
     14 H          33.7310    5.8110  118.8060 H       1  UNL1        0.0620
     15 H          29.7370    6.7940  117.4690 H       1  UNL1        0.0620
     16 H          34.6530    7.3510  117.1480 H       1  UNL1        0.0618
     17 H          30.6970    8.3430  115.8100 H       1  UNL1        0.0618
     18 H          30.0500    4.8900  118.8880 H       1  UNL1        0.0336
     19 H          32.7590    0.3140  123.8570 H       1  UNL1        0.0721
     20 H          32.9530    2.6340  121.4930 H       1  UNL1        0.1496
     21 H          30.4360    1.4550  122.5420 H       1  UNL1        0.0629
     22 H          33.1480    0.3660  122.1470 H       1  UNL1        0.0721
     23 H          30.8320    3.9290  126.2350 H       1  UNL1        0.0465
     24 H          29.8830    0.3590  124.4900 H       1  UNL1        0.0597
     25 H          29.8770    0.2530  126.8720 H       1  UNL1        0.0288
     26 H          29.7550    2.2860  128.1890 H       1  UNL1        0.0281
     27 H          31.7180    2.5000  126.8190 H       1  UNL1        0.0465
     28 H          28.1860    0.7440  126.6450 H       1  UNL1        0.0288
     29 H          28.7390    3.0780  126.9750 H       1  UNL1        0.0281
     30 H          29.5310    0.4580  119.3650 H       1  UNL1        0.0252
     31 H          28.3710    0.4640  121.6950 H       1  UNL1        0.1495
     32 H          26.9140   -1.0300  119.9320 H       1  UNL1        0.0592
     33 H          27.9100    1.1580  119.4130 H       1  UNL1        0.0252
     34 H          28.3370   -0.0040  118.1470 H       1  UNL1        0.0252
     35 H          34.9120   -4.4780  113.2110 H       1  UNL1        0.0272
     36 H          35.5460   -5.6830  114.3450 H       1  UNL1        0.0272
     37 H          36.6620   -4.6610  113.4190 H       1  UNL1        0.0272
     38 H          26.2260   -1.9920  124.8950 H       1  UNL1        0.0252
     39 H          28.2460   -0.7810  124.3720 H       1  UNL1        0.0594
     40 H          25.2060   -0.7450  124.1770 H       1  UNL1        0.0252
     41 H          26.1190   -0.3930  125.6540 H       1  UNL1        0.0252
     42 H          32.5160   -3.3340  119.8360 H       1  UNL1        0.0314
     43 H          29.6750   -2.3900  122.1920 H       1  UNL1        0.0616
     44 H          30.8280   -4.4330  122.1370 H       1  UNL1        0.0292
     45 H          30.6210   -3.6160  118.4000 H       1  UNL1        0.0467
     46 H          31.5920   -6.1820  120.5190 H       1  UNL1        0.0233
     47 H          32.5440   -5.7120  119.1010 H       1  UNL1        0.0233
     48 H          32.2480   -3.3760  122.2530 H       1  UNL1        0.0292
     49 H          29.8010   -4.7180  119.5320 H       1  UNL1        0.0467
     50 H          33.2300   -5.5410  120.7260 H       1  UNL1        0.0233
     51 C          33.1350    2.2230  118.6020 C.2     1  UNL1        0.2375
     52 C          33.1120    1.2800  117.4580 C.2     1  UNL1        0.0001
     53 C          33.9970    0.2750  117.3890 C.2     1  UNL1       -0.0569
     54 C          33.9960   -0.6840  116.3060 C.2     1  UNL1       -0.0616
     55 C          34.8660   -1.7020  116.2270 C.2     1  UNL1       -0.0621
     56 C          34.8460   -2.6580  115.1440 C.2     1  UNL1       -0.0659
     57 C          35.7100   -3.6800  115.0550 C.2     1  UNL1       -0.0871
     58 C          35.7010   -4.6780  113.9420 C.3     1  UNL1       -0.0465
     59 O          34.0020    2.2180  119.4680 O.2     1  UNL1       -0.2708
     60 N          32.0680    3.0850  118.5970 N.am    1  UNL1       -0.3002
     61 C          31.8400    4.0100  119.7050 C.3     1  UNL1        0.1036
     62 C          31.0980    3.1980  120.7850 C.2     1  UNL1        0.2344
     63 O          29.8790    3.0460  120.8100 O.2     1  UNL1       -0.2738
     64 C          31.0160    5.2340  119.2830 C.3     1  UNL1       -0.0006
     65 C          31.6520    6.1500  118.2530 C.ar    1  UNL1       -0.0451
     66 C          33.0390    6.3390  118.1550 C.ar    1  UNL1       -0.0585
     67 C          30.8190    6.8940  117.4020 C.ar    1  UNL1       -0.0585
     68 C          33.5760    7.2210  117.2130 C.ar    1  UNL1       -0.0615
     69 C          31.3560    7.7770  116.4620 C.ar    1  UNL1       -0.0615
     70 C          32.7360    7.9380  116.3660 C.ar    1  UNL1       -0.0617
     71 N          31.9500    2.5210  121.6280 N.am    1  UNL1       -0.2997
     72 C          31.4850    1.6940  122.7290 C.3     1  UNL1        0.1340
     73 C          31.6000    2.4850  124.0450 C.2     1  UNL1        0.2399
     74 O          32.5330    3.2710  124.2310 O.2     1  UNL1       -0.2734
     75 C          32.3140    0.4080  122.8590 C.3     1  UNL1        0.1193
     76 O          31.4740   -0.7550  122.6990 O.3     1  UNL1       -0.4610
     77 N          30.6920    2.1990  125.0450 N.am    1  UNL1       -0.2883
     78 C          29.5580    1.2700  124.9910 C.3     1  UNL1        0.1025
     79 C          28.3370    1.8870  124.2590 C.2     1  UNL1        0.2365
     80 O          28.2060    3.1130  124.1990 O.2     1  UNL1       -0.2735
     81 C          29.2240    1.0340  126.4640 C.3     1  UNL1       -0.0243
     82 C          29.5660    2.3720  127.1160 C.3     1  UNL1       -0.0350
     83 C          30.7910    2.8410  126.3440 C.3     1  UNL1        0.0156
     84 N          27.3710    1.0340  123.7240 N.am    1  UNL1       -0.2917
     85 C          26.2030    1.6640  123.1070 C.3     1  UNL1        0.0040
     86 C          27.3450   -0.4440  123.8570 C.3     1  UNL1        0.0991
     87 C          26.1560   -0.9170  124.6930 C.3     1  UNL1       -0.0379
     88 C          27.3770   -1.1550  122.4820 C.2     1  UNL1        0.2339
     89 O          26.9390   -2.2900  122.3120 O.2     1  UNL1       -0.2738
     90 N          28.1050   -0.5000  121.5060 N.am    1  UNL1       -0.3027
     91 C          27.9920   -0.9020  120.1060 C.3     1  UNL1        0.0968
     92 C          28.6320   -2.2200  119.5870 C.2     1  UNL1        0.2363
     93 O          28.1800   -2.7100  118.5410 O.2     1  UNL1       -0.2736
     94 C          28.4710    0.2400  119.2060 C.3     1  UNL1       -0.0381
     95 C          31.2360   -1.1360  121.4070 C.2     1  UNL1        0.3279
     96 N          29.7930   -2.7290  120.1230 N.am    1  UNL1       -0.2862
     97 O          31.6500   -0.5490  120.4180 O.2     1  UNL1       -0.2487
     98 C          30.4300   -2.4350  121.4070 C.3     1  UNL1        0.1233
     99 C          31.3740   -3.6210  121.6400 C.3     1  UNL1       -0.0199
    100 C          30.4570   -3.8420  119.4590 C.3     1  UNL1        0.0182
    101 C          32.3110   -5.4490  120.1380 C.3     1  UNL1       -0.0609
    102 C          31.7640   -4.0350  120.2210 C.3     1  UNL1       -0.0258
@<TRIPOS>BOND
     1    35    58    1
     2    37    58    1
     3    58    36    1
     4    58    57    1
     5     5    56    1
     6    57    56    2
     7    57     6    1
     8    56    55    1
     9     3    54    1
    10    10    70    1
    11    17    69    1
    12    55    54    2
    13    55     4    1
    14    54    53    1
    15    70    69   ar
    16    70    68   ar
    17    69    67   ar
    18     1    52    1
    19    16    68    1
    20    68    66   ar
    21    53    52    2
    22    53     2    1
    23    67    15    1
    24    67    65   ar
    25    52    51    1
    26    11    60    1
    27    34    94    1
    28    66    65   ar
    29    66    14    1
    30    65    64    1
    31    45   100    1
    32    93    92    2
    33    60    51   am
    34    60    61    1
    35    51    59    2
    36    18    64    1
    37    47   101    1
    38    94    30    1
    39    94    33    1
    40    94    91    1
    41    64    61    1
    42    64    13    1
    43   100    49    1
    44   100    96    1
    45   100   102    1
    46    92    91    1
    47    92    96   am
    48    61    12    1
    49    61    62    1
    50    42   102    1
    51    32    91    1
    52    91    90    1
    53    96    98    1
    54   101   102    1
    55   101    46    1
    56   101    50    1
    57   102    99    1
    58    97    95    2
    59    62    63    2
    60    62    71   am
    61    95    98    1
    62    95    76    1
    63    98    99    1
    64    98    43    1
    65    20    71    1
    66    90    31    1
    67    90    88   am
    68    71    72    1
    69    99    44    1
    70    99    48    1
    71    22    75    1
    72     9    85    1
    73    89    88    2
    74    88    86    1
    75    21    72    1
    76    76    75    1
    77     7    85    1
    78    72    75    1
    79    72    73    1
    80    75    19    1
    81    85    84    1
    82    85     8    1
    83    84    86    1
    84    84    79   am
    85    86    39    1
    86    86    87    1
    87    73    74    2
    88    73    77   am
    89    40    87    1
    90    80    79    2
    91    79    78    1
    92    24    78    1
    93    87    38    1
    94    87    41    1
    95    78    77    1
    96    78    81    1
    97    77    83    1
    98    23    83    1
    99    83    27    1
   100    83    82    1
   101    81    28    1
   102    81    25    1
   103    81    82    1
   104    29    82    1
   105    82    26    1
