@<TRIPOS>MOLECULE
134.85204
 102 105 0 0 0
SMALL
GASTEIGER

@<TRIPOS>ATOM
      1 H          26.3140   -2.1520  123.3590 H       1  UNL1        0.0669
      2 H          29.2300   -2.6870  122.5110 H       1  UNL1        0.0619
      3 H          27.7580   -2.8650  125.2560 H       1  UNL1        0.0618
      4 H          30.7020   -3.1630  124.4200 H       1  UNL1        0.0617
      5 H          29.2190   -3.3840  127.1520 H       1  UNL1        0.0614
      6 H          32.1770   -3.5760  126.3370 H       1  UNL1        0.0569
      7 H          21.6220    7.9250  115.7490 H       1  UNL1        0.0429
      8 H          22.4180    7.8790  114.1730 H       1  UNL1        0.0429
      9 H          23.3400    8.3450  115.6290 H       1  UNL1        0.0429
     10 H          24.5720    0.5110  113.7940 H       1  UNL1        0.0618
     11 H          25.3620   -0.7850  121.8100 H       1  UNL1        0.1498
     12 H          26.6950   -0.3840  119.2420 H       1  UNL1        0.0598
     13 H          23.7240   -1.2030  119.3480 H       1  UNL1        0.0336
     14 H          22.6680    0.0390  117.6110 H       1  UNL1        0.0620
     15 H          26.6480   -1.5070  116.9600 H       1  UNL1        0.0620
     16 H          22.6150    0.8440  115.2780 H       1  UNL1        0.0618
     17 H          26.5820   -0.6690  114.6400 H       1  UNL1        0.0618
     18 H          24.9870   -2.3230  118.8880 H       1  UNL1        0.0336
     19 H          27.2190    4.2000  118.6910 H       1  UNL1        0.0721
     20 H          25.9300    1.6210  118.2430 H       1  UNL1        0.1496
     21 H          24.6630    3.4780  120.2370 H       1  UNL1        0.0629
     22 H          27.3070    3.3060  120.1850 H       1  UNL1        0.0721
     23 H          22.5130    3.8280  119.9340 H       1  UNL1        0.0465
     24 H          23.0590    3.6630  115.8800 H       1  UNL1        0.0597
     25 H          21.1970    2.4570  116.5710 H       1  UNL1        0.0288
     26 H          20.2570    2.7430  118.7620 H       1  UNL1        0.0281
     27 H          22.5560    2.2220  119.1620 H       1  UNL1        0.0465
     28 H          20.3890    4.0230  116.3850 H       1  UNL1        0.0288
     29 H          20.5790    4.4800  118.7530 H       1  UNL1        0.0281
     30 H          26.0610    9.5690  115.8660 H       1  UNL1        0.0252
     31 H          25.2470    6.4270  116.6280 H       1  UNL1        0.1495
     32 H          27.7540    7.0550  115.6150 H       1  UNL1        0.0592
     33 H          27.1620    9.0840  114.5940 H       1  UNL1        0.0252
     34 H          27.8140    9.6010  116.1540 H       1  UNL1        0.0252
     35 H          30.6670   -3.8100  129.0430 H       1  UNL1        0.0272
     36 H          32.2430   -3.0270  128.8240 H       1  UNL1        0.0272
     37 H          32.0790   -4.7770  128.5790 H       1  UNL1        0.0272
     38 H          24.2260    5.0200  112.5260 H       1  UNL1        0.0252
     39 H          24.3240    4.7730  114.9180 H       1  UNL1        0.0594
     40 H          23.2690    6.4940  112.6350 H       1  UNL1        0.0252
     41 H          22.5630    4.9480  113.1370 H       1  UNL1        0.0252
     42 H          23.8530    8.4170  119.7890 H       1  UNL1        0.0314
     43 H          27.5700    7.4760  120.3280 H       1  UNL1        0.0616
     44 H          26.4450    9.4550  121.0220 H       1  UNL1        0.0292
     45 H          24.7190    8.7060  117.6240 H       1  UNL1        0.0467
     46 H          25.0100   11.2420  120.0620 H       1  UNL1        0.0233
     47 H          23.4580   10.8180  119.3200 H       1  UNL1        0.0233
     48 H          25.3200    8.2600  121.6980 H       1  UNL1        0.0292
     49 H          25.9030    9.9350  118.1400 H       1  UNL1        0.0467
     50 H          23.7180   10.5450  121.0520 H       1  UNL1        0.0233
     51 C          27.0300   -1.9120  121.2830 C.2     1  UNL1        0.2375
     52 C          27.1800   -2.2520  122.7170 C.2     1  UNL1        0.0001
     53 C          28.3800   -2.6190  123.1890 C.2     1  UNL1       -0.0569
     54 C          28.6170   -2.8940  124.5890 C.2     1  UNL1       -0.0616
     55 C          29.8380   -3.1470  125.0820 C.2     1  UNL1       -0.0621
     56 C          30.0810   -3.3820  126.4870 C.2     1  UNL1       -0.0659
     57 C          31.3080   -3.5820  126.9910 C.2     1  UNL1       -0.0871
     58 C          31.5820   -3.8120  128.4420 C.3     1  UNL1       -0.0465
     59 O          27.8210   -2.2680  120.4210 O.2     1  UNL1       -0.2708
     60 N          25.9470   -1.1100  121.0460 N.am    1  UNL1       -0.3002
     61 C          25.7270   -0.4730  119.7490 C.3     1  UNL1        0.1036
     62 C          25.2160    0.9430  120.0690 C.2     1  UNL1        0.2344
     63 O          24.5880    1.1930  121.0980 O.2     1  UNL1       -0.2738
     64 C          24.7230   -1.2570  118.8970 C.3     1  UNL1       -0.0006
     65 C          24.6680   -0.7800  117.4630 C.ar    1  UNL1       -0.0451
     66 C          23.5340   -0.1190  116.9730 C.ar    1  UNL1       -0.0585
     67 C          25.7620   -0.9800  116.6090 C.ar    1  UNL1       -0.0585
     68 C          23.5010    0.3420  115.6560 C.ar    1  UNL1       -0.0615
     69 C          25.7280   -0.5110  115.2950 C.ar    1  UNL1       -0.0615
     70 C          24.5990    0.1520  114.8200 C.ar    1  UNL1       -0.0617
     71 N          25.5270    1.8980  119.1350 N.am    1  UNL1       -0.2997
     72 C          25.3100    3.3330  119.3690 C.3     1  UNL1        0.1340
     73 C          24.6440    3.8590  118.0750 C.2     1  UNL1        0.2399
     74 O          25.3190    4.2440  117.1150 O.2     1  UNL1       -0.2734
     75 C          26.6770    4.0070  119.6230 C.3     1  UNL1        0.1193
     76 O          26.7150    5.2180  120.4100 O.3     1  UNL1       -0.4610
     77 N          23.2740    3.7610  117.9690 N.am    1  UNL1       -0.2883
     78 C          22.5720    4.1240  116.7390 C.3     1  UNL1        0.1025
     79 C          22.4350    5.6630  116.5850 C.2     1  UNL1        0.2365
     80 O          21.8370    6.3190  117.4470 O.2     1  UNL1       -0.2735
     81 C          21.1830    3.4950  116.9220 C.3     1  UNL1       -0.0243
     82 C          20.9670    3.5070  118.4320 C.3     1  UNL1       -0.0350
     83 C          22.3610    3.2860  118.9970 C.3     1  UNL1        0.0156
     84 N          22.9460    6.2940  115.4530 N.am    1  UNL1       -0.2917
     85 C          22.5600    7.6870  115.2390 C.3     1  UNL1        0.0040
     86 C          23.9990    5.7480  114.5560 C.3     1  UNL1        0.0991
     87 C          23.4810    5.5440  113.1350 C.3     1  UNL1       -0.0379
     88 C          25.2850    6.6170  114.5910 C.2     1  UNL1        0.2339
     89 O          25.9240    6.9160  113.5860 O.2     1  UNL1       -0.2738
     90 N          25.7130    6.9150  115.8650 N.am    1  UNL1       -0.3027
     91 C          26.9680    7.6000  116.1550 C.3     1  UNL1        0.0968
     92 C          27.2790    7.4240  117.6570 C.2     1  UNL1        0.2363
     93 O          28.2050    6.6860  118.0110 O.2     1  UNL1       -0.2736
     94 C          27.0010    9.0440  115.6760 C.3     1  UNL1       -0.0381
     95 C          25.8360    6.1960  120.0800 C.2     1  UNL1        0.3279
     96 N          26.4470    7.9930  118.6000 N.am    1  UNL1       -0.2862
     97 O          24.6720    5.9920  119.7600 O.2     1  UNL1       -0.2487
     98 C          26.5300    7.5600  119.9980 C.3     1  UNL1        0.1233
     99 C          25.7660    8.6310  120.7700 C.3     1  UNL1       -0.0199
    100 C          25.4100    8.9980  118.4170 C.3     1  UNL1        0.0182
    101 C          24.1960   10.5090  120.0680 C.3     1  UNL1       -0.0609
    102 C          24.7040    9.1090  119.7700 C.3     1  UNL1       -0.0258
@<TRIPOS>BOND
     1    38    87    1
     2    40    87    1
     3    87    41    1
     4    87    86    1
     5    89    88    2
     6    10    70    1
     7     8    85    1
     8    86    88    1
     9    86    39    1
    10    86    84    1
    11    88    90   am
    12    33    94    1
    13    17    69    1
    14    70    69   ar
    15    70    68   ar
    16    85    84    1
    17    85     9    1
    18    85     7    1
    19    16    68    1
    20    69    67   ar
    21    84    79   am
    22    32    91    1
    23    68    66   ar
    24    94    30    1
    25    94    34    1
    26    94    91    1
    27    90    91    1
    28    90    31    1
    29    24    78    1
    30    91    92    1
    31    28    81    1
    32    25    81    1
    33    79    78    1
    34    79    80    2
    35    67    15    1
    36    67    65   ar
    37    78    81    1
    38    78    77    1
    39    81    82    1
    40    66    65   ar
    41    66    14    1
    42    74    73    2
    43    65    64    1
    44    45   100    1
    45    92    93    2
    46    92    96   am
    47    77    73   am
    48    77    83    1
    49    73    72    1
    50    49   100    1
    51    20    71    1
    52   100    96    1
    53   100   102    1
    54    82    29    1
    55    82    26    1
    56    82    83    1
    57    96    98    1
    58    19    75    1
    59    18    64    1
    60    64    13    1
    61    64    61    1
    62    83    27    1
    63    83    23    1
    64    71    72    1
    65    71    62   am
    66    12    61    1
    67    47   101    1
    68    72    75    1
    69    72    21    1
    70    75    22    1
    71    75    76    1
    72    61    62    1
    73    61    60    1
    74    97    95    2
    75   102    42    1
    76   102   101    1
    77   102    99    1
    78    98    95    1
    79    98    43    1
    80    98    99    1
    81    46   101    1
    82   101    50    1
    83    62    63    2
    84    95    76    1
    85    59    51    2
    86    99    44    1
    87    99    48    1
    88    60    51   am
    89    60    11    1
    90    51    52    1
    91     2    53    1
    92    52    53    2
    93    52     1    1
    94    53    54    1
    95     4    55    1
    96    54    55    2
    97    54     3    1
    98    55    56    1
    99     6    57    1
   100    56    57    2
   101    56     5    1
   102    57    58    1
   103    58    37    1
   104    58    36    1
   105    58    35    1
