@<TRIPOS>MOLECULE
142.41611
 102 105 0 0 0
SMALL
GASTEIGER

@<TRIPOS>ATOM
      1 H          35.4230    0.2700  120.4730 H       1  UNL1        0.0669
      2 H          35.0110    2.8960  118.9110 H       1  UNL1        0.0619
      3 H          37.3180    1.8770  120.7460 H       1  UNL1        0.0618
      4 H          36.7690    4.5410  119.3090 H       1  UNL1        0.0617
      5 H          39.0810    3.5400  121.1420 H       1  UNL1        0.0614
      6 H          38.4820    6.2240  119.7670 H       1  UNL1        0.0569
      7 H          26.8880    5.1890  121.8140 H       1  UNL1        0.0429
      8 H          28.0470    6.4160  121.2950 H       1  UNL1        0.0429
      9 H          28.5460    5.1140  122.4210 H       1  UNL1        0.0429
     10 H          27.4740   -4.2800  116.2600 H       1  UNL1        0.0618
     11 H          33.8740   -1.2540  119.9050 H       1  UNL1        0.1498
     12 H          31.6500   -0.5410  118.0960 H       1  UNL1        0.0598
     13 H          32.2030   -3.2040  119.5610 H       1  UNL1        0.0336
     14 H          29.7980   -3.7340  119.8200 H       1  UNL1        0.0620
     15 H          31.4170   -2.6100  115.9730 H       1  UNL1        0.0620
     16 H          27.7160   -4.4570  118.7200 H       1  UNL1        0.0618
     17 H          29.3290   -3.3630  114.8920 H       1  UNL1        0.0618
     18 H          32.8760   -2.8240  117.9950 H       1  UNL1        0.0336
     19 H          29.0220    0.2780  122.7360 H       1  UNL1        0.0721
     20 H          29.5350   -0.3530  118.7480 H       1  UNL1        0.1496
     21 H          28.4900   -1.1440  121.1690 H       1  UNL1        0.0629
     22 H          28.0430    1.5110  121.9510 H       1  UNL1        0.0721
     23 H          25.1720    1.1490  118.6490 H       1  UNL1        0.0465
     24 H          29.0990    2.1610  119.1700 H       1  UNL1        0.0597
     25 H          28.3350    2.4430  116.8930 H       1  UNL1        0.0288
     26 H          25.9640    2.6000  116.4030 H       1  UNL1        0.0281
     27 H          26.2300    0.4470  117.4020 H       1  UNL1        0.0465
     28 H          27.9080    4.0370  117.5360 H       1  UNL1        0.0288
     29 H          25.6330    3.3590  117.9670 H       1  UNL1        0.0281
     30 H          33.1990    6.8050  121.0380 H       1  UNL1        0.0252
     31 H          31.8650    3.5850  119.8520 H       1  UNL1        0.1495
     32 H          33.8110    3.8220  120.8700 H       1  UNL1        0.0592
     33 H          33.7760    5.9530  119.5970 H       1  UNL1        0.0252
     34 H          34.7880    6.0400  121.0480 H       1  UNL1        0.0252
     35 H          40.7690    5.2110  121.6080 H       1  UNL1        0.0272
     36 H          40.0670    6.8380  121.6540 H       1  UNL1        0.0272
     37 H          40.9860    6.3080  120.2320 H       1  UNL1        0.0272
     38 H          30.3010    6.3440  118.2610 H       1  UNL1        0.0252
     39 H          29.9070    4.0950  119.0550 H       1  UNL1        0.0594
     40 H          29.2460    7.0470  119.4830 H       1  UNL1        0.0252
     41 H          28.5520    6.0510  118.2040 H       1  UNL1        0.0252
     42 H          31.5600    1.6380  125.4190 H       1  UNL1        0.0314
     43 H          32.4700    2.0710  121.6890 H       1  UNL1        0.0616
     44 H          33.5910    0.7510  123.3160 H       1  UNL1        0.0292
     45 H          32.3740    3.8230  125.3520 H       1  UNL1        0.0467
     46 H          34.5440    0.9570  125.5970 H       1  UNL1        0.0233
     47 H          33.5030    1.4370  126.9480 H       1  UNL1        0.0233
     48 H          31.9340    0.1610  123.5580 H       1  UNL1        0.0292
     49 H          34.0300    3.3140  124.9550 H       1  UNL1        0.0467
     50 H          33.2060   -0.0890  126.0970 H       1  UNL1        0.0233
     51 C          33.5940    0.7090  119.3050 C.2     1  UNL1        0.2375
     52 C          34.9470    1.0040  119.8340 C.2     1  UNL1        0.0001
     53 C          35.5220    2.1830  119.5580 C.2     1  UNL1       -0.0569
     54 C          36.7900    2.5920  120.1180 C.2     1  UNL1       -0.0616
     55 C          37.3000    3.8170  119.9230 C.2     1  UNL1       -0.0621
     56 C          38.5380    4.2550  120.5260 C.2     1  UNL1       -0.0659
     57 C          39.0200    5.4970  120.3710 C.2     1  UNL1       -0.0871
     58 C          40.2830    5.9840  121.0040 C.3     1  UNL1       -0.0465
     59 O          32.8430    1.5780  118.8780 O.2     1  UNL1       -0.2708
     60 N          33.2720   -0.6200  119.3960 N.am    1  UNL1       -0.3002
     61 C          31.9640   -1.1170  118.9750 C.3     1  UNL1        0.1036
     62 C          30.9780   -0.8710  120.1320 C.2     1  UNL1        0.2344
     63 O          31.2630   -1.1070  121.3050 O.2     1  UNL1       -0.2738
     64 C          32.0200   -2.6170  118.6510 C.3     1  UNL1       -0.0006
     65 C          30.7640   -3.1150  117.9770 C.ar    1  UNL1       -0.0451
     66 C          29.7130   -3.6460  118.7380 C.ar    1  UNL1       -0.0585
     67 C          30.6150   -3.0130  116.5870 C.ar    1  UNL1       -0.0585
     68 C          28.5320   -4.0580  118.1200 C.ar    1  UNL1       -0.0615
     69 C          29.4360   -3.4360  115.9720 C.ar    1  UNL1       -0.0615
     70 C          28.3940   -3.9550  116.7380 C.ar    1  UNL1       -0.0617
     71 N          29.7520   -0.3880  119.7380 N.am    1  UNL1       -0.2997
     72 C          28.6470   -0.1730  120.6760 C.3     1  UNL1        0.1340
     73 C          27.3650    0.0570  119.8560 C.2     1  UNL1        0.2399
     74 O          26.5200   -0.8450  119.8040 O.2     1  UNL1       -0.2734
     75 C          28.8940    0.8430  121.8020 C.3     1  UNL1        0.1193
     76 O          30.0960    1.6030  121.5730 O.3     1  UNL1       -0.4610
     77 N          27.2360    1.1780  119.0660 N.am    1  UNL1       -0.2883
     78 C          28.0450    2.4080  119.0360 C.3     1  UNL1        0.1025
     79 C          27.5850    3.3990  120.1440 C.2     1  UNL1        0.2365
     80 O          26.5340    3.1790  120.7570 O.2     1  UNL1       -0.2735
     81 C          27.7350    2.9670  117.6470 C.3     1  UNL1       -0.0243
     82 C          26.2620    2.6210  117.4550 C.3     1  UNL1       -0.0350
     83 C          26.1270    1.2630  118.1270 C.3     1  UNL1        0.0156
     84 N          28.3620    4.5200  120.4260 N.am    1  UNL1       -0.2917
     85 C          27.9350    5.3590  121.5490 C.3     1  UNL1        0.0040
     86 C          29.6120    4.8990  119.7320 C.3     1  UNL1        0.0991
     87 C          29.4120    6.1530  118.8720 C.3     1  UNL1       -0.0379
     88 C          30.7910    5.1710  120.6930 C.2     1  UNL1        0.2339
     89 O          30.7730    6.0750  121.5240 O.2     1  UNL1       -0.2738
     90 N          31.8740    4.3310  120.5430 N.am    1  UNL1       -0.3027
     91 C          33.1450    4.6230  121.2000 C.3     1  UNL1        0.0968
     92 C          33.1660    4.5300  122.7480 C.2     1  UNL1        0.2363
     93 O          33.7720    5.3690  123.4220 O.2     1  UNL1       -0.2736
     94 C          33.7580    5.9290  120.6920 C.3     1  UNL1       -0.0381
     95 C          30.5640    2.2180  122.7010 C.2     1  UNL1        0.3279
     96 N          32.7130    3.3650  123.3390 N.am    1  UNL1       -0.2862
     97 O          29.8540    2.5740  123.6300 O.2     1  UNL1       -0.2487
     98 C          32.1030    2.1950  122.7090 C.3     1  UNL1        0.1233
     99 C          32.5750    1.0470  123.6040 C.3     1  UNL1       -0.0199
    100 C          32.9700    3.1260  124.7520 C.3     1  UNL1        0.0182
    101 C          33.5120    0.9540  125.9660 C.3     1  UNL1       -0.0609
    102 C          32.5760    1.6700  125.0070 C.3     1  UNL1       -0.0258
@<TRIPOS>BOND
     1    17    69    1
     2    69    67   ar
     3    69    70   ar
     4    15    67    1
     5    10    70    1
     6    26    82    1
     7    67    65   ar
     8    70    68   ar
     9    25    81    1
    10    27    83    1
    11    82    81    1
    12    82    29    1
    13    82    83    1
    14    28    81    1
    15    81    78    1
    16    65    64    1
    17    65    66   ar
    18    18    64    1
    19    12    61    1
    20    68    16    1
    21    68    66   ar
    22    83    23    1
    23    83    77    1
    24    41    87    1
    25    38    87    1
    26    64    61    1
    27    64    13    1
    28    66    14    1
    29    20    71    1
    30    87    40    1
    31    87    86    1
    32    59    51    2
    33     2    53    1
    34    61    60    1
    35    61    62    1
    36    78    77    1
    37    78    24    1
    38    78    79    1
    39    39    86    1
    40    77    73   am
    41    51    60   am
    42    51    52    1
    43     4    55    1
    44    60    11    1
    45    53    52    2
    46    53    54    1
    47    33    94    1
    48    86    84    1
    49    86    88    1
    50    71    62   am
    51    71    72    1
    52     6    57    1
    53    74    73    2
    54    52     1    1
    55    31    90    1
    56    73    72    1
    57    55    54    2
    58    55    56    1
    59    54     3    1
    60    62    63    2
    61    79    84   am
    62    79    80    2
    63    37    58    1
    64    57    56    2
    65    57    58    1
    66    84    85    1
    67    56     5    1
    68    90    88   am
    69    90    91    1
    70    72    21    1
    71    72    75    1
    72    94    30    1
    73    94    34    1
    74    94    91    1
    75    88    89    2
    76    32    91    1
    77    58    35    1
    78    58    36    1
    79    91    92    1
    80     8    85    1
    81    85     7    1
    82    85     9    1
    83    76    75    1
    84    76    95    1
    85    43    98    1
    86    75    22    1
    87    75    19    1
    88    95    98    1
    89    95    97    2
    90    98    96    1
    91    98    99    1
    92    92    96   am
    93    92    93    2
    94    44    99    1
    95    96   100    1
    96    48    99    1
    97    99   102    1
    98   100    49    1
    99   100   102    1
   100   100    45    1
   101   102    42    1
   102   102   101    1
   103    46   101    1
   104   101    50    1
   105   101    47    1
