@<TRIPOS>MOLECULE
155.86776
 102 105 0 0 0
SMALL
GASTEIGER

@<TRIPOS>ATOM
      1 H          34.9530    2.3720  118.1580 H       1  UNL1        0.0669
      2 H          36.1360    5.2170  118.0950 H       1  UNL1        0.0619
      3 H          37.4150    2.3740  117.9600 H       1  UNL1        0.0618
      4 H          38.5960    5.2110  117.8930 H       1  UNL1        0.0617
      5 H          39.8470    2.3610  117.7360 H       1  UNL1        0.0614
      6 H          41.0460    5.1900  117.6790 H       1  UNL1        0.0569
      7 H          25.1680   -0.9430  116.4120 H       1  UNL1        0.0429
      8 H          25.2400   -2.6970  116.5970 H       1  UNL1        0.0429
      9 H          26.6650   -1.7900  115.9860 H       1  UNL1        0.0429
     10 H          26.0380    6.9700  118.4640 H       1  UNL1        0.0618
     11 H          32.7640    2.3360  118.2870 H       1  UNL1        0.1498
     12 H          31.2050    4.3890  119.3130 H       1  UNL1        0.0598
     13 H          30.6280    4.0010  116.3010 H       1  UNL1        0.0336
     14 H          28.1960    3.8050  116.5330 H       1  UNL1        0.0620
     15 H          30.3290    6.9570  118.5740 H       1  UNL1        0.0620
     16 H          26.0580    4.8700  117.1430 H       1  UNL1        0.0618
     17 H          28.1760    8.0090  119.1740 H       1  UNL1        0.0618
     18 H          31.4610    5.4070  116.9120 H       1  UNL1        0.0336
     19 H          29.7030   -0.5780  119.8220 H       1  UNL1        0.0721
     20 H          29.4030    3.3330  120.1730 H       1  UNL1        0.1496
     21 H          28.3440    0.9420  118.9940 H       1  UNL1        0.0629
     22 H          29.1460   -0.2280  121.4540 H       1  UNL1        0.0721
     23 H          25.0510    2.3770  121.3690 H       1  UNL1        0.0465
     24 H          27.1560   -1.0320  120.5460 H       1  UNL1        0.0597
     25 H          25.2790   -1.3970  121.9280 H       1  UNL1        0.0288
     26 H          23.4870    0.2350  122.0370 H       1  UNL1        0.0281
     27 H          25.5730    1.2830  122.6730 H       1  UNL1        0.0465
     28 H          24.4300   -1.6360  120.3860 H       1  UNL1        0.0288
     29 H          23.7130    0.6740  120.3340 H       1  UNL1        0.0281
     30 H          29.1170   -0.9860  117.3360 H       1  UNL1        0.0252
     31 H          29.2750   -4.5530  116.5510 H       1  UNL1        0.1495
     32 H          31.0350   -3.3340  116.9220 H       1  UNL1        0.0592
     33 H          29.5850   -1.6540  115.7670 H       1  UNL1        0.0252
     34 H          30.7950   -0.8930  116.8070 H       1  UNL1        0.0252
     35 H          42.2530    2.3330  117.5020 H       1  UNL1        0.0272
     36 H          42.9940    3.6940  118.3640 H       1  UNL1        0.0272
     37 H          42.8350    3.7420  116.5970 H       1  UNL1        0.0272
     38 H          26.9320   -4.6010  119.7460 H       1  UNL1        0.0252
     39 H          27.9750   -2.3040  119.1010 H       1  UNL1        0.0594
     40 H          25.4080   -3.9450  119.1260 H       1  UNL1        0.0252
     41 H          26.2260   -3.1880  120.4980 H       1  UNL1        0.0252
     42 H          34.5250   -0.8170  118.9020 H       1  UNL1        0.0314
     43 H          31.5500   -1.7900  121.2400 H       1  UNL1        0.0616
     44 H          33.7050   -2.7780  121.0890 H       1  UNL1        0.0292
     45 H          32.9580   -1.6560  117.4260 H       1  UNL1        0.0467
     46 H          35.1790   -3.7700  119.3770 H       1  UNL1        0.0233
     47 H          35.8050   -2.7600  118.0640 H       1  UNL1        0.0233
     48 H          34.1700   -1.0750  121.2650 H       1  UNL1        0.0292
     49 H          33.1100   -3.3230  118.0260 H       1  UNL1        0.0467
     50 H          36.2340   -2.3960  119.7450 H       1  UNL1        0.0233
     51 C          33.6960    4.1840  118.2560 C.2     1  UNL1        0.2375
     52 C          34.9850    3.4550  118.1650 C.2     1  UNL1        0.0001
     53 C          36.1420    4.1280  118.0850 C.2     1  UNL1       -0.0569
     54 C          37.4220    3.4620  117.9740 C.2     1  UNL1       -0.0616
     55 C          38.5850    4.1230  117.8810 C.2     1  UNL1       -0.0621
     56 C          39.8570    3.4480  117.7560 C.2     1  UNL1       -0.0659
     57 C          41.0240    4.1030  117.6610 C.2     1  UNL1       -0.0871
     58 C          42.3470    3.4230  117.5240 C.3     1  UNL1       -0.0465
     59 O          33.6200    5.4020  118.3420 O.2     1  UNL1       -0.2708
     60 N          32.6190    3.3430  118.2300 N.am    1  UNL1       -0.3002
     61 C          31.2430    3.8080  118.3840 C.3     1  UNL1        0.1036
     62 C          30.3940    2.5330  118.5210 C.2     1  UNL1        0.2344
     63 O          30.5120    1.5650  117.7660 O.2     1  UNL1       -0.2738
     64 C          30.7370    4.6320  117.1920 C.3     1  UNL1       -0.0006
     65 C          29.4200    5.3080  117.5040 C.ar    1  UNL1       -0.0451
     66 C          28.2070    4.7310  117.1050 C.ar    1  UNL1       -0.0585
     67 C          29.3980    6.4940  118.2510 C.ar    1  UNL1       -0.0585
     68 C          26.9950    5.3290  117.4500 C.ar    1  UNL1       -0.0615
     69 C          28.1840    7.0910  118.5920 C.ar    1  UNL1       -0.0615
     70 C          26.9830    6.5080  118.1930 C.ar    1  UNL1       -0.0617
     71 N          29.5380    2.5100  119.5890 N.am    1  UNL1       -0.2997
     72 C          28.7750    1.3180  119.9280 C.3     1  UNL1        0.1340
     73 C          27.6070    1.7200  120.8350 C.2     1  UNL1        0.2399
     74 O          27.6850    2.7350  121.5360 O.2     1  UNL1       -0.2734
     75 C          29.6270    0.2050  120.5710 C.3     1  UNL1        0.1193
     76 O          30.9440    0.6380  120.9710 O.3     1  UNL1       -0.4610
     77 N          26.4830    0.9210  120.8470 N.am    1  UNL1       -0.2883
     78 C          26.2930   -0.4270  120.2730 C.3     1  UNL1        0.1025
     79 C          26.0640   -0.4690  118.7350 C.2     1  UNL1        0.2365
     80 O          25.5840    0.5150  118.1650 O.2     1  UNL1       -0.2735
     81 C          25.0170   -0.9240  120.9740 C.3     1  UNL1       -0.0243
     82 C          24.2310    0.3520  121.2450 C.3     1  UNL1       -0.0350
     83 C          25.3190    1.3430  121.6080 C.3     1  UNL1        0.0156
     84 N          26.3310   -1.6600  118.0460 N.am    1  UNL1       -0.2917
     85 C          25.8220   -1.7750  116.6830 C.3     1  UNL1        0.0040
     86 C          27.1670   -2.7790  118.5600 C.3     1  UNL1        0.0991
     87 C          26.3870   -3.6730  119.5350 C.3     1  UNL1       -0.0379
     88 C          27.7600   -3.7570  117.5060 C.2     1  UNL1        0.2339
     89 O          27.0320   -4.5310  116.8720 O.2     1  UNL1       -0.2738
     90 N          29.0900   -3.8160  117.2220 N.am    1  UNL1       -0.3027
     91 C          30.1920   -2.8790  117.4560 C.3     1  UNL1        0.0968
     92 C          30.6390   -2.7110  118.9310 C.2     1  UNL1        0.2363
     93 O          29.9010   -2.9910  119.8780 O.2     1  UNL1       -0.2736
     94 C          29.9050   -1.5290  116.8070 C.3     1  UNL1       -0.0381
     95 C          31.9990    0.1100  120.2910 C.2     1  UNL1        0.3279
     96 N          31.8540   -2.0950  119.1480 N.am    1  UNL1       -0.2862
     97 O          32.7800    0.8290  119.6700 O.2     1  UNL1       -0.2487
     98 C          32.1660   -1.4250  120.4120 C.3     1  UNL1        0.1233
     99 C          33.6370   -1.7860  120.6250 C.3     1  UNL1       -0.0199
    100 C          33.0430   -2.2720  118.3250 C.3     1  UNL1        0.0182
    101 C          35.4270   -2.7430  119.0910 C.3     1  UNL1       -0.0609
    102 C          34.2190   -1.8260  119.2020 C.3     1  UNL1       -0.0258
@<TRIPOS>BOND
     1    33    94    1
     2     9    85    1
     3    13    64    1
     4     7    85    1
     5    14    66    1
     6    31    90    1
     7    37    58    1
     8     8    85    1
     9    85    84    1
    10    34    94    1
    11    94    30    1
    12    94    91    1
    13    89    88    2
    14    18    64    1
    15    32    91    1
    16    66    68   ar
    17    66    65   ar
    18    16    68    1
    19    64    65    1
    20    64    61    1
    21    90    91    1
    22    90    88   am
    23    45   100    1
    24    68    70   ar
    25    91    92    1
    26    35    58    1
    27    65    67   ar
    28    88    86    1
    29    58    57    1
    30    58    36    1
    31    57     6    1
    32    57    56    2
    33     5    56    1
    34    56    55    1
    35    63    62    2
    36    55     4    1
    37    55    54    2
    38     3    54    1
    39    54    53    1
    40    49   100    1
    41    84    86    1
    42    84    79   am
    43    47   101    1
    44    53     2    1
    45    53    52    2
    46     1    52    1
    47    80    79    2
    48    52    51    1
    49    70    10    1
    50    70    69   ar
    51    60    51   am
    52    60    11    1
    53    60    61    1
    54    67    15    1
    55    67    69   ar
    56    51    59    2
    57   100    96    1
    58   100   102    1
    59    61    62    1
    60    61    12    1
    61    62    71   am
    62    86    39    1
    63    86    87    1
    64    69    17    1
    65    79    78    1
    66    42   102    1
    67    92    96   am
    68    92    93    2
    69    21    72    1
    70   101   102    1
    71   101    46    1
    72   101    50    1
    73    40    87    1
    74    96    98    1
    75   102    99    1
    76    87    38    1
    77    87    41    1
    78    71    72    1
    79    71    20    1
    80    97    95    2
    81    19    75    1
    82    72    75    1
    83    72    73    1
    84    78    24    1
    85    78    77    1
    86    78    81    1
    87    95    98    1
    88    95    76    1
    89    29    82    1
    90    28    81    1
    91    98    99    1
    92    98    43    1
    93    75    76    1
    94    75    22    1
    95    99    44    1
    96    99    48    1
    97    73    77   am
    98    73    74    2
    99    77    83    1
   100    81    82    1
   101    81    25    1
   102    82    83    1
   103    82    26    1
   104    23    83    1
   105    83    27    1
