@<TRIPOS>MOLECULE
132.51276
 102 105 0 0 0
SMALL
GASTEIGER

@<TRIPOS>ATOM
      1 H          37.0850    1.7340  119.7990 H       1  UNL1        0.0669
      2 H          38.3140    3.2330  122.1930 H       1  UNL1        0.0619
      3 H          39.4360    1.1030  120.2070 H       1  UNL1        0.0618
      4 H          40.6320    2.5210  122.6590 H       1  UNL1        0.0617
      5 H          41.7390    0.4200  120.6400 H       1  UNL1        0.0614
      6 H          42.9300    1.7800  123.1260 H       1  UNL1        0.0569
      7 H          31.9710    2.6030  115.5430 H       1  UNL1        0.0429
      8 H          31.5090    1.7960  114.0350 H       1  UNL1        0.0429
      9 H          32.1320    0.8460  115.4200 H       1  UNL1        0.0429
     10 H          29.1250    7.7710  120.8140 H       1  UNL1        0.0618
     11 H          34.9080    2.1400  119.5310 H       1  UNL1        0.1498
     12 H          33.3640    3.6420  121.4540 H       1  UNL1        0.0598
     13 H          33.6040    4.7230  118.5670 H       1  UNL1        0.0336
     14 H          31.3620    5.3800  118.0460 H       1  UNL1        0.0620
     15 H          32.9710    6.2460  121.9620 H       1  UNL1        0.0620
     16 H          29.3560    6.6920  118.5900 H       1  UNL1        0.0618
     17 H          30.9380    7.5470  122.4920 H       1  UNL1        0.0618
     18 H          34.4200    5.4740  119.9150 H       1  UNL1        0.0336
     19 H          28.6560    0.5310  120.4250 H       1  UNL1        0.0721
     20 H          31.0120    3.4390  120.8680 H       1  UNL1        0.1496
     21 H          30.4290    1.5840  118.6870 H       1  UNL1        0.0629
     22 H          29.8830    0.9900  121.6330 H       1  UNL1        0.0721
     23 H          27.4170    4.9440  118.7150 H       1  UNL1        0.0465
     24 H          28.2560    1.1580  117.5140 H       1  UNL1        0.0597
     25 H          26.2400    1.9040  116.6810 H       1  UNL1        0.0288
     26 H          25.7110    4.2650  116.6920 H       1  UNL1        0.0281
     27 H          26.2960    3.5820  118.9430 H       1  UNL1        0.0465
     28 H          27.2050    2.5030  115.3190 H       1  UNL1        0.0288
     29 H          27.3920    4.6990  116.3230 H       1  UNL1        0.0281
     30 H          29.8830   -4.8760  116.3760 H       1  UNL1        0.0252
     31 H          29.8380   -2.5450  115.3920 H       1  UNL1        0.1495
     32 H          29.1500   -2.5770  118.2620 H       1  UNL1        0.0592
     33 H          28.2490   -4.3960  116.8540 H       1  UNL1        0.0252
     34 H          29.3720   -5.0530  118.0610 H       1  UNL1        0.0252
     35 H          44.0040   -0.2990  121.0810 H       1  UNL1        0.0272
     36 H          44.3360   -0.3250  122.8220 H       1  UNL1        0.0272
     37 H          44.9670    0.9940  121.8170 H       1  UNL1        0.0272
     38 H          29.2880   -1.2710  113.7020 H       1  UNL1        0.0252
     39 H          28.4280    0.3420  115.2860 H       1  UNL1        0.0594
     40 H          30.9550   -0.7490  113.9570 H       1  UNL1        0.0252
     41 H          29.7910    0.3300  113.1610 H       1  UNL1        0.0252
     42 H          32.8570   -1.8090  121.5610 H       1  UNL1        0.0314
     43 H          29.7760   -3.6050  120.1750 H       1  UNL1        0.0616
     44 H          31.4490   -4.5250  121.5550 H       1  UNL1        0.0292
     45 H          33.4970   -2.1690  119.3050 H       1  UNL1        0.0467
     46 H          33.9250   -4.6840  121.7400 H       1  UNL1        0.0233
     47 H          34.9120   -3.2140  121.7240 H       1  UNL1        0.0233
     48 H          31.0680   -3.1150  122.5590 H       1  UNL1        0.0292
     49 H          33.3400   -3.9360  119.4290 H       1  UNL1        0.0467
     50 H          33.8130   -3.5320  123.0790 H       1  UNL1        0.0233
     51 C          35.9520    3.2150  120.9820 C.2     1  UNL1        0.2375
     52 C          37.1530    2.4160  120.6380 C.2     1  UNL1        0.0001
     53 C          38.2800    2.5400  121.3530 C.2     1  UNL1       -0.0569
     54 C          39.4720    1.7750  121.0630 C.2     1  UNL1       -0.0616
     55 C          40.5910    1.8550  121.7990 C.2     1  UNL1       -0.0621
     56 C          41.7730    1.0760  121.5070 C.2     1  UNL1       -0.0659
     57 C          42.8850    1.1290  122.2550 C.2     1  UNL1       -0.0871
     58 C          44.1130    0.3270  121.9720 C.3     1  UNL1       -0.0465
     59 O          35.9440    4.0750  121.8520 O.2     1  UNL1       -0.2708
     60 N          34.8660    2.8810  120.2260 N.am    1  UNL1       -0.3002
     61 C          33.5620    3.5280  120.3810 C.3     1  UNL1        0.1036
     62 C          32.5380    2.5500  119.7720 C.2     1  UNL1        0.2344
     63 O          32.8710    1.7240  118.9200 O.2     1  UNL1       -0.2738
     64 C          33.5340    4.8810  119.6520 C.3     1  UNL1       -0.0006
     65 C          32.3150    5.7150  119.9670 C.ar    1  UNL1       -0.0451
     66 C          31.2910    5.8580  119.0220 C.ar    1  UNL1       -0.0585
     67 C          32.1820    6.3350  121.2160 C.ar    1  UNL1       -0.0585
     68 C          30.1490    6.5990  119.3270 C.ar    1  UNL1       -0.0615
     69 C          31.0380    7.0740  121.5190 C.ar    1  UNL1       -0.0615
     70 C          30.0210    7.2040  120.5750 C.ar    1  UNL1       -0.0617
     71 N          31.2520    2.6810  120.2320 N.am    1  UNL1       -0.2997
     72 C          30.1300    1.9170  119.6750 C.3     1  UNL1        0.1340
     73 C          28.9350    2.8910  119.6010 C.2     1  UNL1        0.2399
     74 O          28.6390    3.5620  120.5980 O.2     1  UNL1       -0.2734
     75 C          29.7240    0.7380  120.5770 C.3     1  UNL1        0.1193
     76 O          30.4660   -0.4690  120.2840 O.3     1  UNL1       -0.4610
     77 N          28.2150    3.0120  118.4300 N.am    1  UNL1       -0.2883
     78 C          28.3170    2.1970  117.2090 C.3     1  UNL1        0.1025
     79 C          29.6000    2.5000  116.3920 C.2     1  UNL1        0.2365
     80 O          30.1040    3.6270  116.4410 O.2     1  UNL1       -0.2735
     81 C          27.0680    2.5670  116.4030 C.3     1  UNL1       -0.0243
     82 C          26.7550    3.9860  116.8600 C.3     1  UNL1       -0.0350
     83 C          27.1230    3.9620  118.3330 C.3     1  UNL1        0.0156
     84 N          30.1520    1.4910  115.5960 N.am    1  UNL1       -0.2917
     85 C          31.5170    1.7010  115.1240 C.3     1  UNL1        0.0040
     86 C          29.5100    0.1760  115.3130 C.3     1  UNL1        0.0991
     87 C          29.9130   -0.4100  113.9590 C.3     1  UNL1       -0.0379
     88 C          29.7460   -0.7860  116.5010 C.2     1  UNL1        0.2339
     89 O          29.8420   -0.3590  117.6510 O.2     1  UNL1       -0.2738
     90 N          29.6770   -2.1410  116.3040 N.am    1  UNL1       -0.3027
     91 C          29.7850   -3.0050  117.4810 C.3     1  UNL1        0.0968
     92 C          31.2620   -3.0330  117.9370 C.2     1  UNL1        0.2363
     93 O          32.1610   -3.1840  117.1020 O.2     1  UNL1       -0.2736
     94 C          29.2960   -4.4120  117.1760 C.3     1  UNL1       -0.0381
     95 C          29.9160   -1.5860  120.8280 C.2     1  UNL1        0.3279
     96 N          31.5380   -2.9180  119.2850 N.am    1  UNL1       -0.2862
     97 O          28.9860   -1.5740  121.6330 O.2     1  UNL1       -0.2487
     98 C          30.5890   -2.9070  120.4050 C.3     1  UNL1        0.1233
     99 C          31.4310   -3.4280  121.5750 C.3     1  UNL1       -0.0199
    100 C          32.9120   -2.9790  119.7530 C.3     1  UNL1        0.0182
    101 C          33.9310   -3.6190  121.9940 C.3     1  UNL1       -0.0609
    102 C          32.8250   -2.8680  121.2730 C.3     1  UNL1       -0.0258
@<TRIPOS>BOND
     1    41    87    1
     2    38    87    1
     3    40    87    1
     4    87    86    1
     5     8    85    1
     6    85     9    1
     7    85     7    1
     8    85    84    1
     9    39    86    1
    10    86    84    1
    11    86    88    1
    12    28    81    1
    13    31    90    1
    14    84    79   am
    15    90    88   am
    16    90    91    1
    17    29    82    1
    18    30    94    1
    19    79    80    2
    20    79    78    1
    21    81    25    1
    22    81    82    1
    23    81    78    1
    24    88    89    2
    25    26    82    1
    26    33    94    1
    27    82    83    1
    28    93    92    2
    29    94    91    1
    30    94    34    1
    31    78    24    1
    32    78    77    1
    33    91    92    1
    34    91    32    1
    35    92    96   am
    36    14    66    1
    37    83    77    1
    38    83    23    1
    39    83    27    1
    40    77    73   am
    41    13    64    1
    42    16    68    1
    43    21    72    1
    44    63    62    2
    45    66    68   ar
    46    66    65   ar
    47    96   100    1
    48    96    98    1
    49    45   100    1
    50    68    70   ar
    51    49   100    1
    52    11    60    1
    53    73    72    1
    54    73    74    2
    55    64    18    1
    56    64    65    1
    57    64    61    1
    58    72    71    1
    59    72    75    1
    60   100   102    1
    61    62    71   am
    62    62    61    1
    63     1    52    1
    64    65    67   ar
    65    43    98    1
    66     3    54    1
    67    60    61    1
    68    60    51   am
    69    71    20    1
    70    76    75    1
    71    76    95    1
    72    61    12    1
    73    98    95    1
    74    98    99    1
    75    19    75    1
    76    70    10    1
    77    70    69   ar
    78    75    22    1
    79    52    51    1
    80    52    53    2
    81     5    56    1
    82    95    97    2
    83    51    59    2
    84    54    53    1
    85    54    55    2
    86    35    58    1
    87    67    69   ar
    88    67    15    1
    89   102    42    1
    90   102    99    1
    91   102   101    1
    92    53     2    1
    93    56    55    1
    94    56    57    2
    95    69    17    1
    96    44    99    1
    97    99    48    1
    98    47   101    1
    99    46   101    1
   100    55     4    1
   101    37    58    1
   102    58    57    1
   103    58    36    1
   104   101    50    1
   105    57     6    1
