@<TRIPOS>MOLECULE
128.68095
 102 105 0 0 0
SMALL
GASTEIGER

@<TRIPOS>ATOM
      1 H          35.8690   -8.1870  114.0330 H       1  UNL1        0.0669
      2 H          38.9460   -8.0790  114.1300 H       1  UNL1        0.0619
      3 H          36.8620  -10.2220  115.0250 H       1  UNL1        0.0618
      4 H          39.9260  -10.0620  115.2190 H       1  UNL1        0.0617
      5 H          37.8290  -12.1980  116.0880 H       1  UNL1        0.0614
      6 H          40.8880  -12.0290  116.3330 H       1  UNL1        0.0569
      7 H          29.6750   -1.3420  109.4740 H       1  UNL1        0.0429
      8 H          28.2800   -2.3260  109.9380 H       1  UNL1        0.0429
      9 H          29.9400   -2.9850  110.0830 H       1  UNL1        0.0429
     10 H          36.2280    0.7180  109.4190 H       1  UNL1        0.0618
     11 H          34.9640   -6.2170  113.4840 H       1  UNL1        0.1498
     12 H          36.5980   -3.8620  113.0860 H       1  UNL1        0.0598
     13 H          34.7720   -4.8080  110.7780 H       1  UNL1        0.0336
     14 H          33.7410   -2.6800  110.2130 H       1  UNL1        0.0620
     15 H          38.0030   -2.8990  110.9030 H       1  UNL1        0.0620
     16 H          33.9880   -0.3540  109.4660 H       1  UNL1        0.0618
     17 H          38.2300   -0.5630  110.1310 H       1  UNL1        0.0618
     18 H          36.5090   -4.9860  110.7290 H       1  UNL1        0.0336
     19 H          32.9310   -0.9780  115.9680 H       1  UNL1        0.0721
     20 H          35.1640   -1.9070  113.1030 H       1  UNL1        0.1496
     21 H          32.3580   -2.2680  113.4670 H       1  UNL1        0.0629
     22 H          34.0400   -2.3700  115.9010 H       1  UNL1        0.0721
     23 H          32.8670    2.0720  112.4100 H       1  UNL1        0.0465
     24 H          30.6200   -0.9620  114.0160 H       1  UNL1        0.0597
     25 H          29.7150    1.2200  114.4390 H       1  UNL1        0.0288
     26 H          30.3930    3.1180  113.0830 H       1  UNL1        0.0281
     27 H          32.3920    2.2670  114.1140 H       1  UNL1        0.0465
     28 H          28.9030    0.9040  112.8940 H       1  UNL1        0.0288
     29 H          30.6120    2.0880  111.6580 H       1  UNL1        0.0281
     30 H          26.9510   -5.3380  116.1160 H       1  UNL1        0.0252
     31 H          27.8960   -5.1580  113.8000 H       1  UNL1        0.1495
     32 H          27.2640   -2.5240  114.9470 H       1  UNL1        0.0592
     33 H          25.6910   -4.3890  115.3200 H       1  UNL1        0.0252
     34 H          26.3780   -3.8420  116.8620 H       1  UNL1        0.0252
     35 H          38.7700  -14.1390  117.1820 H       1  UNL1        0.0272
     36 H          40.2090  -13.7090  118.1230 H       1  UNL1        0.0272
     37 H          40.3840  -14.5160  116.5530 H       1  UNL1        0.0272
     38 H          26.3420   -1.6860  113.0490 H       1  UNL1        0.0252
     39 H          28.7320   -1.6410  113.5260 H       1  UNL1        0.0594
     40 H          26.6210   -1.9420  111.3350 H       1  UNL1        0.0252
     41 H          27.0770   -0.4020  112.0770 H       1  UNL1        0.0252
     42 H          32.1390   -5.8440  115.5550 H       1  UNL1        0.0314
     43 H          30.2970   -3.8350  118.2370 H       1  UNL1        0.0616
     44 H          30.5690   -6.2000  118.1480 H       1  UNL1        0.0292
     45 H          30.1620   -5.3100  114.4290 H       1  UNL1        0.0467
     46 H          30.3390   -8.1170  116.5530 H       1  UNL1        0.0233
     47 H          31.1660   -8.0580  114.9870 H       1  UNL1        0.0233
     48 H          32.2720   -5.7340  117.9680 H       1  UNL1        0.0292
     49 H          29.1100   -6.1530  115.6020 H       1  UNL1        0.0467
     50 H          32.1080   -8.1420  116.4860 H       1  UNL1        0.0233
     51 C          37.0250   -6.4570  113.2900 C.2     1  UNL1        0.2375
     52 C          36.8710   -7.8020  113.8950 C.2     1  UNL1        0.0001
     53 C          37.9520   -8.5000  114.2750 C.2     1  UNL1       -0.0569
     54 C          37.8570   -9.8010  114.9000 C.2     1  UNL1       -0.0616
     55 C          38.9280  -10.4810  115.3350 C.2     1  UNL1       -0.0621
     56 C          38.8240  -11.7720  115.9770 C.2     1  UNL1       -0.0659
     57 C          39.8880  -12.4460  116.4360 C.2     1  UNL1       -0.0871
     58 C          39.8010  -13.7770  117.1100 C.3     1  UNL1       -0.0465
     59 O          38.1050   -5.9870  112.9600 O.2     1  UNL1       -0.2708
     60 N          35.8340   -5.7990  113.1690 N.am    1  UNL1       -0.3002
     61 C          35.7440   -4.4210  112.6860 C.3     1  UNL1        0.1036
     62 C          34.4450   -3.8570  113.2900 C.2     1  UNL1        0.2344
     63 O          33.5070   -4.5900  113.6150 O.2     1  UNL1       -0.2738
     64 C          35.7060   -4.3670  111.1510 C.3     1  UNL1       -0.0006
     65 C          35.8580   -2.9650  110.6110 C.ar    1  UNL1       -0.0451
     66 C          34.7360   -2.2380  110.1900 C.ar    1  UNL1       -0.0585
     67 C          37.1180   -2.3530  110.5800 C.ar    1  UNL1       -0.0585
     68 C          34.8710   -0.9160  109.7650 C.ar    1  UNL1       -0.0615
     69 C          37.2510   -1.0330  110.1470 C.ar    1  UNL1       -0.0615
     70 C          36.1270   -0.3140  109.7440 C.ar    1  UNL1       -0.0617
     71 N          34.4000   -2.4940  113.4340 N.am    1  UNL1       -0.2997
     72 C          33.2210   -1.8140  113.9610 C.3     1  UNL1        0.1340
     73 C          33.3080   -0.3200  113.6260 C.2     1  UNL1        0.2399
     74 O          34.3960    0.2640  113.6640 O.2     1  UNL1       -0.2734
     75 C          33.1150   -1.9470  115.4880 C.3     1  UNL1        0.1193
     76 O          31.9950   -2.7920  115.8050 O.3     1  UNL1       -0.4610
     77 N          32.1310    0.3510  113.3760 N.am    1  UNL1       -0.2883
     78 C          30.7830   -0.2210  113.2310 C.3     1  UNL1        0.1025
     79 C          30.6060   -0.8760  111.8320 C.2     1  UNL1        0.2365
     80 O          31.4800   -0.7370  110.9690 O.2     1  UNL1       -0.2735
     81 C          29.8770    1.0030  113.3770 C.3     1  UNL1       -0.0243
     82 C          30.7040    2.1240  112.7500 C.3     1  UNL1       -0.0350
     83 C          32.1270    1.7880  113.1650 C.3     1  UNL1        0.0156
     84 N          29.4390   -1.5860  111.5530 N.am    1  UNL1       -0.2917
     85 C          29.3170   -2.0920  110.1860 C.3     1  UNL1        0.0040
     86 C          28.4380   -2.0370  112.5540 C.3     1  UNL1        0.0991
     87 C          27.0450   -1.4850  112.2350 C.3     1  UNL1       -0.0379
     88 C          28.3600   -3.5820  112.6890 C.2     1  UNL1        0.2339
     89 O          28.5760   -4.3520  111.7510 O.2     1  UNL1       -0.2738
     90 N          27.9490   -4.1480  113.8610 N.am    1  UNL1       -0.3027
     91 C          27.6730   -3.5200  115.1450 C.3     1  UNL1        0.0968
     92 C          28.8980   -3.3050  116.0650 C.2     1  UNL1        0.2363
     93 O          28.9390   -2.2840  116.7620 O.2     1  UNL1       -0.2736
     94 C          26.6150   -4.3170  115.9040 C.3     1  UNL1       -0.0381
     95 C          31.9930   -3.2810  117.0760 C.2     1  UNL1        0.3279
     96 N          29.8240   -4.3060  116.2440 N.am    1  UNL1       -0.2862
     97 O          32.8600   -3.0510  117.9120 O.2     1  UNL1       -0.2487
     98 C          30.7990   -4.2100  117.3380 C.3     1  UNL1        0.1233
     99 C          31.2780   -5.6500  117.5160 C.3     1  UNL1       -0.0199
    100 C          30.0070   -5.5370  115.4870 C.3     1  UNL1        0.0182
    101 C          31.2110   -7.7150  116.0270 C.3     1  UNL1       -0.0609
    102 C          31.2480   -6.1990  116.0880 C.3     1  UNL1       -0.0258
@<TRIPOS>BOND
     1    10    70    1
     2    16    68    1
     3     7    85    1
     4    70    68   ar
     5    70    69   ar
     6    68    66   ar
     7     8    85    1
     8     9    85    1
     9    17    69    1
    10    69    67   ar
    11    85    84    1
    12    66    14    1
    13    66    65   ar
    14    67    65   ar
    15    67    15    1
    16    65    64    1
    17    18    64    1
    18    13    64    1
    19    80    79    2
    20    64    61    1
    21    40    87    1
    22    84    79   am
    23    84    86    1
    24    29    82    1
    25    89    88    2
    26    79    78    1
    27    41    87    1
    28    87    86    1
    29    87    38    1
    30    23    83    1
    31    86    88    1
    32    86    39    1
    33    61    12    1
    34    61    60    1
    35    61    62    1
    36    88    90   am
    37    82    26    1
    38    82    83    1
    39    82    81    1
    40    28    81    1
    41    59    51    2
    42    20    71    1
    43    83    77    1
    44    83    27    1
    45    60    51   am
    46    60    11    1
    47    78    77    1
    48    78    81    1
    49    78    24    1
    50    62    71   am
    51    62    63    2
    52    51    52    1
    53    77    73   am
    54    81    25    1
    55    71    72    1
    56    21    72    1
    57    73    74    2
    58    73    72    1
    59    31    90    1
    60    90    91    1
    61    52     1    1
    62    52    53    2
    63    72    75    1
    64     2    53    1
    65    53    54    1
    66    45   100    1
    67    54     3    1
    68    54    55    2
    69    32    91    1
    70    47   101    1
    71    91    94    1
    72    91    92    1
    73     4    55    1
    74    33    94    1
    75    55    56    1
    76   100    49    1
    77   100   102    1
    78   100    96    1
    79    75    76    1
    80    75    22    1
    81    75    19    1
    82    42   102    1
    83    76    95    1
    84    94    30    1
    85    94    34    1
    86    56     5    1
    87    56    57    2
    88   101   102    1
    89   101    50    1
    90   101    46    1
    91    92    96   am
    92    92    93    2
    93   102    99    1
    94    96    98    1
    95     6    57    1
    96    57    58    1
    97    37    58    1
    98    95    98    1
    99    95    97    2
   100    58    35    1
   101    58    36    1
   102    98    99    1
   103    98    43    1
   104    99    48    1
   105    99    44    1
