@<TRIPOS>MOLECULE
134.06282
 102 105 0 0 0
SMALL
GASTEIGER

@<TRIPOS>ATOM
      1 H          33.0830   -5.8520  106.7650 H       1  UNL1        0.0669
      2 H          34.9500   -6.5680  104.4200 H       1  UNL1        0.0619
      3 H          32.0190   -5.5060  104.5290 H       1  UNL1        0.0618
      4 H          33.9430   -6.1880  102.2290 H       1  UNL1        0.0617
      5 H          31.0110   -5.1370  102.3170 H       1  UNL1        0.0614
      6 H          32.9490   -5.8020  100.0260 H       1  UNL1        0.0569
      7 H          33.0540   -4.1800  116.6080 H       1  UNL1        0.0429
      8 H          34.0750   -5.5400  117.0690 H       1  UNL1        0.0429
      9 H          32.8190   -5.7790  115.8430 H       1  UNL1        0.0429
     10 H          41.3350   -7.1780  112.3870 H       1  UNL1        0.0618
     11 H          34.1280   -5.9960  108.7610 H       1  UNL1        0.1498
     12 H          36.4420   -7.6940  109.0810 H       1  UNL1        0.0598
     13 H          36.7690   -4.6780  109.6780 H       1  UNL1        0.0336
     14 H          37.8160   -4.7880  111.8620 H       1  UNL1        0.0620
     15 H          39.1660   -7.3930  108.6890 H       1  UNL1        0.0620
     16 H          39.7060   -5.5140  113.2530 H       1  UNL1        0.0618
     17 H          41.0610   -8.1080  110.1040 H       1  UNL1        0.0618
     18 H          37.5090   -5.4600  108.3050 H       1  UNL1        0.0336
     19 H          34.7120   -9.5950  113.9540 H       1  UNL1        0.0721
     20 H          36.7280   -8.2570  111.3030 H       1  UNL1        0.1496
     21 H          35.1230   -6.8260  113.2570 H       1  UNL1        0.0629
     22 H          34.1730   -9.4220  112.2890 H       1  UNL1        0.0721
     23 H          39.0210   -7.6240  115.1370 H       1  UNL1        0.0465
     24 H          35.0100   -7.1930  115.7810 H       1  UNL1        0.0597
     25 H          36.2570   -7.2830  117.7800 H       1  UNL1        0.0288
     26 H          38.6530   -6.9070  117.7460 H       1  UNL1        0.0281
     27 H          38.1020   -8.7060  116.2110 H       1  UNL1        0.0465
     28 H          36.3650   -5.5210  117.5940 H       1  UNL1        0.0288
     29 H          38.4960   -5.6900  116.4660 H       1  UNL1        0.0281
     30 H          32.0030   -5.9800  110.1300 H       1  UNL1        0.0252
     31 H          33.3740   -5.0540  112.1230 H       1  UNL1        0.1495
     32 H          31.0000   -3.5720  111.7240 H       1  UNL1        0.0592
     33 H          32.5240   -4.3020  109.9060 H       1  UNL1        0.0252
     34 H          30.8500   -4.7680  109.5740 H       1  UNL1        0.0252
     35 H          30.0260   -4.7570  100.1360 H       1  UNL1        0.0272
     36 H          30.6500   -5.9060   98.9390 H       1  UNL1        0.0272
     37 H          31.2480   -4.2350   98.9630 H       1  UNL1        0.0272
     38 H          34.4280   -2.3730  112.5300 H       1  UNL1        0.0252
     39 H          33.8690   -2.7500  114.9380 H       1  UNL1        0.0594
     40 H          35.2730   -3.9200  112.5020 H       1  UNL1        0.0252
     41 H          35.8210   -2.6210  113.5780 H       1  UNL1        0.0252
     42 H          29.6790   -9.3980  112.8960 H       1  UNL1        0.0314
     43 H          31.5570   -6.3400  114.1630 H       1  UNL1        0.0616
     44 H          29.9720   -7.6000  115.3530 H       1  UNL1        0.0292
     45 H          28.4580   -7.6360  111.8390 H       1  UNL1        0.0467
     46 H          27.6880   -8.5900  115.0910 H       1  UNL1        0.0233
     47 H          27.3310   -9.6200  113.6950 H       1  UNL1        0.0233
     48 H          31.0170   -8.9500  114.8780 H       1  UNL1        0.0292
     49 H          28.1150   -6.8130  113.3790 H       1  UNL1        0.0467
     50 H          28.4770  -10.1680  114.9320 H       1  UNL1        0.0233
     51 C          35.1500   -6.5930  107.0450 C.2     1  UNL1        0.2375
     52 C          33.9710   -6.1840  106.2440 C.2     1  UNL1        0.0001
     53 C          34.0350   -6.2280  104.9050 C.2     1  UNL1       -0.0569
     54 C          32.9380   -5.8360  104.0480 C.2     1  UNL1       -0.0616
     55 C          33.0230   -5.8610  102.7100 C.2     1  UNL1       -0.0621
     56 C          31.9350   -5.4630  101.8450 C.2     1  UNL1       -0.0659
     57 C          32.0290   -5.4790  100.5070 C.2     1  UNL1       -0.0871
     58 C          30.9220   -5.0700   99.5910 C.3     1  UNL1       -0.0465
     59 O          36.1660   -7.0610  106.5500 O.2     1  UNL1       -0.2708
     60 N          34.9890   -6.3790  108.3870 N.am    1  UNL1       -0.3002
     61 C          36.0480   -6.7040  109.3410 C.3     1  UNL1        0.1036
     62 C          35.4020   -6.7570  110.7350 C.2     1  UNL1        0.2344
     63 O          34.5200   -5.9700  111.0840 O.2     1  UNL1       -0.2738
     64 C          37.1610   -5.6430  109.3300 C.3     1  UNL1       -0.0006
     65 C          38.3530   -6.0370  110.1690 C.ar    1  UNL1       -0.0451
     66 C          38.5230   -5.5100  111.4560 C.ar    1  UNL1       -0.0585
     67 C          39.2770   -6.9730  109.6870 C.ar    1  UNL1       -0.0585
     68 C          39.5930   -5.9200  112.2510 C.ar    1  UNL1       -0.0615
     69 C          40.3490   -7.3790  110.4830 C.ar    1  UNL1       -0.0615
     70 C          40.5050   -6.8550  111.7650 C.ar    1  UNL1       -0.0617
     71 N          35.9150   -7.7090  111.5810 N.am    1  UNL1       -0.2997
     72 C          35.4990   -7.8070  112.9740 C.3     1  UNL1        0.1340
     73 C          36.7420   -8.1510  113.8060 C.2     1  UNL1        0.2399
     74 O          37.5480   -8.9900  113.3930 O.2     1  UNL1       -0.2734
     75 C          34.4110   -8.8590  113.1990 C.3     1  UNL1        0.1193
     76 O          33.2360   -8.2110  113.7350 O.3     1  UNL1       -0.4610
     77 N          36.9200   -7.5060  115.0110 N.am    1  UNL1       -0.2883
     78 C          35.9600   -6.6530  115.7310 C.3     1  UNL1        0.1025
     79 C          35.7470   -5.2760  115.0440 C.2     1  UNL1        0.2365
     80 O          36.6630   -4.7660  114.4000 O.2     1  UNL1       -0.2735
     81 C          36.5940   -6.4780  117.1160 C.3     1  UNL1       -0.0243
     82 C          38.0880   -6.6310  116.8510 C.3     1  UNL1       -0.0350
     83 C          38.1370   -7.7010  115.7760 C.3     1  UNL1        0.0156
     84 N          34.4770   -4.7080  115.1540 N.am    1  UNL1       -0.2917
     85 C          33.5560   -5.0750  116.2300 C.3     1  UNL1        0.0040
     86 C          34.0080   -3.6100  114.2680 C.3     1  UNL1        0.0991
     87 C          34.9370   -3.1130  113.1580 C.3     1  UNL1       -0.0379
     88 C          32.5960   -3.9040  113.6880 C.2     1  UNL1        0.2339
     89 O          31.5770   -3.5580  114.2880 O.2     1  UNL1       -0.2738
     90 N          32.5240   -4.6640  112.5390 N.am    1  UNL1       -0.3027
     91 C          31.3270   -4.6220  111.6990 C.3     1  UNL1        0.0968
     92 C          30.0410   -5.4270  112.0310 C.2     1  UNL1        0.2363
     93 O          28.9790   -5.0690  111.4990 O.2     1  UNL1       -0.2736
     94 C          31.6980   -4.9360  110.2460 C.3     1  UNL1       -0.0381
     95 C          32.2600   -7.8720  112.8360 C.2     1  UNL1        0.3279
     96 N          30.0750   -6.6170  112.7200 N.am    1  UNL1       -0.2862
     97 O          32.2900   -8.1230  111.6410 O.2     1  UNL1       -0.2487
     98 C          31.1280   -7.1520  113.5800 C.3     1  UNL1        0.1233
     99 C          30.3900   -8.1390  114.4940 C.3     1  UNL1       -0.0199
    100 C          28.8570   -7.4080  112.8330 C.3     1  UNL1        0.0182
    101 C          28.1250   -9.2930  114.3740 C.3     1  UNL1       -0.0609
    102 C          29.2660   -8.6610  113.5980 C.3     1  UNL1       -0.0258
@<TRIPOS>BOND
     1    36    58    1
     2    37    58    1
     3    58    35    1
     4    58    57    1
     5     6    57    1
     6    57    56    2
     7    56     5    1
     8    56    55    1
     9     4    55    1
    10    55    54    2
    11    54     3    1
    12    54    53    1
    13     2    53    1
    14    53    52    2
    15    52     1    1
    16    52    51    1
    17    59    51    2
    18    51    60   am
    19    18    64    1
    20    60    11    1
    21    60    61    1
    22    15    67    1
    23    12    61    1
    24    64    61    1
    25    64    13    1
    26    64    65    1
    27    61    62    1
    28    34    94    1
    29    67    65   ar
    30    67    69   ar
    31    33    94    1
    32    17    69    1
    33    30    94    1
    34    65    66   ar
    35    94    91    1
    36    69    70   ar
    37    62    63    2
    38    62    71   am
    39    20    71    1
    40    66    14    1
    41    66    68   ar
    42    93    92    2
    43    71    72    1
    44    97    95    2
    45    91    32    1
    46    91    92    1
    47    91    90    1
    48    70    68   ar
    49    70    10    1
    50    45   100    1
    51    92    96   am
    52    31    90    1
    53    68    16    1
    54    22    75    1
    55    40    87    1
    56    38    87    1
    57    90    88   am
    58    96   100    1
    59    96    98    1
    60   100    49    1
    61   100   102    1
    62    95    98    1
    63    95    76    1
    64    42   102    1
    65    72    75    1
    66    72    21    1
    67    72    73    1
    68    87    41    1
    69    87    86    1
    70    75    76    1
    71    75    19    1
    72    74    73    2
    73    98    43    1
    74    98    99    1
    75   102   101    1
    76   102    99    1
    77    88    86    1
    78    88    89    2
    79    47   101    1
    80    73    77   am
    81    86    39    1
    82    86    84    1
    83   101    50    1
    84   101    46    1
    85    80    79    2
    86    99    48    1
    87    99    44    1
    88    77    78    1
    89    77    83    1
    90    79    84   am
    91    79    78    1
    92    23    83    1
    93    84    85    1
    94    78    24    1
    95    78    81    1
    96    83    27    1
    97    83    82    1
    98     9    85    1
    99    85     7    1
   100    85     8    1
   101    29    82    1
   102    82    81    1
   103    82    26    1
   104    81    28    1
   105    81    25    1
