@<TRIPOS>MOLECULE
142.68037
 102 105 0 0 0
SMALL
GASTEIGER

@<TRIPOS>ATOM
      1 H          33.8750    2.3390  120.3850 H       1  UNL1        0.0669
      2 H          32.6370    4.0300  122.6420 H       1  UNL1        0.0619
      3 H          35.1560    2.1990  122.4810 H       1  UNL1        0.0618
      4 H          33.9280    3.8850  124.7400 H       1  UNL1        0.0617
      5 H          36.4150    2.0140  124.5640 H       1  UNL1        0.0614
      6 H          35.1920    3.6770  126.8410 H       1  UNL1        0.0569
      7 H          27.1670   -1.1050  116.0850 H       1  UNL1        0.0429
      8 H          26.1270   -2.5450  116.1090 H       1  UNL1        0.0429
      9 H          27.8860   -2.6980  116.3860 H       1  UNL1        0.0429
     10 H          34.2710    6.8960  114.4200 H       1  UNL1        0.0618
     11 H          32.6380    2.3120  118.5400 H       1  UNL1        0.1498
     12 H          30.2540    4.0940  118.2820 H       1  UNL1        0.0598
     13 H          30.1150    3.1200  115.9620 H       1  UNL1        0.0336
     14 H          31.4370    5.7300  117.4040 H       1  UNL1        0.0620
     15 H          32.6930    2.9090  114.3760 H       1  UNL1        0.0620
     16 H          32.9000    7.4220  116.4180 H       1  UNL1        0.0618
     17 H          34.1560    4.6360  113.4040 H       1  UNL1        0.0618
     18 H          31.5110    2.1050  116.3090 H       1  UNL1        0.0336
     19 H          28.4880    0.1480  122.2090 H       1  UNL1        0.0721
     20 H          29.2290    3.1830  120.0610 H       1  UNL1        0.1496
     21 H          28.3880    0.3370  119.7630 H       1  UNL1        0.0629
     22 H          28.8030    1.8630  122.3810 H       1  UNL1        0.0721
     23 H          24.2880    2.1800  120.0070 H       1  UNL1        0.0465
     24 H          26.7800   -1.0160  120.5530 H       1  UNL1        0.0597
     25 H          24.5750   -1.4010  121.3760 H       1  UNL1        0.0288
     26 H          22.7290   -0.0100  120.6340 H       1  UNL1        0.0281
     27 H          24.3630    1.4540  121.6310 H       1  UNL1        0.0465
     28 H          24.3040   -1.9770  119.7180 H       1  UNL1        0.0288
     29 H          23.4470    0.1780  119.0250 H       1  UNL1        0.0281
     30 H          31.4850   -0.7940  118.8160 H       1  UNL1        0.0252
     31 H          29.0640   -1.6650  118.3910 H       1  UNL1        0.1495
     32 H          30.8730   -3.6960  118.0920 H       1  UNL1        0.0592
     33 H          31.3120   -1.4870  117.2080 H       1  UNL1        0.0252
     34 H          32.6840   -1.9510  118.2300 H       1  UNL1        0.0252
     35 H          37.6560    1.7960  126.6270 H       1  UNL1        0.0272
     36 H          36.5890    1.9150  128.0370 H       1  UNL1        0.0272
     37 H          37.6040    3.2950  127.5720 H       1  UNL1        0.0272
     38 H          26.1700   -5.1570  119.0550 H       1  UNL1        0.0252
     39 H          26.6210   -2.9350  119.8520 H       1  UNL1        0.0594
     40 H          26.5020   -4.7070  117.3830 H       1  UNL1        0.0252
     41 H          25.0810   -4.0430  118.2110 H       1  UNL1        0.0252
     42 H          32.0970   -1.6980  123.8150 H       1  UNL1        0.0314
     43 H          29.4190   -1.6190  121.0760 H       1  UNL1        0.0616
     44 H          29.1990   -2.5200  123.2880 H       1  UNL1        0.0292
     45 H          32.8310   -3.4520  122.4250 H       1  UNL1        0.0467
     46 H          30.3870   -3.9980  124.9140 H       1  UNL1        0.0233
     47 H          32.0830   -3.6810  125.3150 H       1  UNL1        0.0233
     48 H          29.8190   -0.9130  123.7140 H       1  UNL1        0.0292
     49 H          31.3440   -4.4030  122.6370 H       1  UNL1        0.0467
     50 H          30.8280   -2.5210  125.7840 H       1  UNL1        0.0233
     51 C          31.9970    3.4750  120.1290 C.2     1  UNL1        0.2375
     52 C          33.1870    3.0120  120.8810 C.2     1  UNL1        0.0001
     53 C          33.3570    3.3700  122.1620 C.2     1  UNL1       -0.0569
     54 C          34.4580    2.8810  122.9630 C.2     1  UNL1       -0.0616
     55 C          34.6280    3.2100  124.2520 C.2     1  UNL1       -0.0621
     56 C          35.7160    2.6910  125.0510 C.2     1  UNL1       -0.0659
     57 C          35.8850    3.0030  126.3440 C.2     1  UNL1       -0.0871
     58 C          36.9990    2.4690  127.1860 C.3     1  UNL1       -0.0465
     59 O          31.1290    4.1920  120.6140 O.2     1  UNL1       -0.2708
     60 N          31.9330    2.9660  118.8570 N.am    1  UNL1       -0.3002
     61 C          30.7380    3.1440  118.0300 C.3     1  UNL1        0.1036
     62 C          29.7870    2.0040  118.4490 C.2     1  UNL1        0.2344
     63 O          29.7460    0.9030  117.9010 O.2     1  UNL1       -0.2738
     64 C          31.0540    3.0790  116.5300 C.3     1  UNL1       -0.0006
     65 C          31.9640    4.1650  115.9860 C.ar    1  UNL1       -0.0451
     66 C          32.0270    5.4540  116.5340 C.ar    1  UNL1       -0.0585
     67 C          32.7350    3.8910  114.8430 C.ar    1  UNL1       -0.0585
     68 C          32.8580    6.4290  115.9760 C.ar    1  UNL1       -0.0615
     69 C          33.5640    4.8670  114.2850 C.ar    1  UNL1       -0.0615
     70 C          33.6280    6.1350  114.8540 C.ar    1  UNL1       -0.0617
     71 N          29.1110    2.2700  119.6190 N.am    1  UNL1       -0.2997
     72 C          28.3540    1.2600  120.3400 C.3     1  UNL1        0.1340
     73 C          26.9150    1.7580  120.5380 C.2     1  UNL1        0.2399
     74 O          26.6970    2.9150  120.9060 O.2     1  UNL1       -0.2734
     75 C          28.9660    1.0020  121.7230 C.3     1  UNL1        0.1193
     76 O          30.4050    0.8460  121.6370 O.3     1  UNL1       -0.4610
     77 N          25.8880    0.8560  120.3640 N.am    1  UNL1       -0.2883
     78 C          25.9820   -0.5520  119.9690 C.3     1  UNL1        0.1025
     79 C          26.2690   -0.7140  118.4520 C.2     1  UNL1        0.2365
     80 O          26.0380    0.2130  117.6730 O.2     1  UNL1       -0.2735
     81 C          24.6020   -1.1120  120.3180 C.3     1  UNL1       -0.0243
     82 C          23.6750    0.0790  120.0930 C.3     1  UNL1       -0.0350
     83 C          24.5070    1.2630  120.5620 C.3     1  UNL1        0.0156
     84 N          26.7660   -1.9360  117.9990 N.am    1  UNL1       -0.2917
     85 C          27.0050   -2.0750  116.5630 C.3     1  UNL1        0.0040
     86 C          26.9610   -3.1420  118.8360 C.3     1  UNL1        0.0991
     87 C          26.1310   -4.3270  118.3400 C.3     1  UNL1       -0.0379
     88 C          28.4440   -3.5420  119.0040 C.2     1  UNL1        0.2339
     89 O          28.7670   -4.6570  119.4080 O.2     1  UNL1       -0.2738
     90 N          29.3680   -2.5260  118.8390 N.am    1  UNL1       -0.3027
     91 C          30.7920   -2.8590  118.8000 C.3     1  UNL1        0.0968
     92 C          31.4260   -3.3790  120.1140 C.2     1  UNL1        0.2363
     93 O          32.2980   -4.2560  120.0360 O.2     1  UNL1       -0.2736
     94 C          31.6160   -1.7090  118.2370 C.3     1  UNL1       -0.0381
     95 C          31.0890   -0.3070  121.4610 C.2     1  UNL1        0.3279
     96 N          31.1510   -2.7990  121.3350 N.am    1  UNL1       -0.2862
     97 O          32.2860   -0.2640  121.1840 O.2     1  UNL1       -0.2487
     98 C          30.3280   -1.6260  121.6730 C.3     1  UNL1        0.1233
     99 C          30.0460   -1.8330  123.1660 C.3     1  UNL1       -0.0199
    100 C          31.7420   -3.3880  122.5300 C.3     1  UNL1        0.0182
    101 C          31.1460   -3.2130  124.9980 C.3     1  UNL1       -0.0609
    102 C          31.3340   -2.4770  123.6830 C.3     1  UNL1       -0.0258
@<TRIPOS>BOND
     1    17    69    1
     2    69    67   ar
     3    69    70   ar
     4    15    67    1
     5    10    70    1
     6    67    65   ar
     7    70    68   ar
     8    13    64    1
     9    68    16    1
    10    68    66   ar
    11    65    64    1
    12    65    66   ar
    13     7    85    1
    14     8    85    1
    15    18    64    1
    16     9    85    1
    17    64    61    1
    18    66    14    1
    19    85    84    1
    20    33    94    1
    21    40    87    1
    22    80    79    2
    23    63    62    2
    24    84    79   am
    25    84    86    1
    26    61    12    1
    27    61    62    1
    28    61    60    1
    29    32    91    1
    30    41    87    1
    31    34    94    1
    32    94    91    1
    33    94    30    1
    34    87    86    1
    35    87    38    1
    36    31    90    1
    37    62    71   am
    38    79    78    1
    39    11    60    1
    40    91    90    1
    41    91    92    1
    42    86    88    1
    43    86    39    1
    44    90    88   am
    45    60    51   am
    46    88    89    2
    47    29    82    1
    48    71    20    1
    49    71    72    1
    50    28    81    1
    51    21    72    1
    52    78    81    1
    53    78    77    1
    54    78    24    1
    55    23    83    1
    56    93    92    2
    57    82    81    1
    58    82    83    1
    59    82    26    1
    60    92    96   am
    61    51    59    2
    62    51    52    1
    63    81    25    1
    64    72    73    1
    65    72    75    1
    66    77    73   am
    67    77    83    1
    68     1    52    1
    69    73    74    2
    70    83    27    1
    71    52    53    2
    72    43    98    1
    73    97    95    2
    74    96    98    1
    75    96   100    1
    76    95    76    1
    77    95    98    1
    78    76    75    1
    79    98    99    1
    80    75    19    1
    81    75    22    1
    82    53     2    1
    83    53    54    1
    84    45   100    1
    85     3    54    1
    86   100    49    1
    87   100   102    1
    88    54    55    2
    89    99    44    1
    90    99   102    1
    91    99    48    1
    92   102    42    1
    93   102   101    1
    94    55     4    1
    95    55    56    1
    96     5    56    1
    97    46   101    1
    98   101    47    1
    99   101    50    1
   100    56    57    2
   101    57     6    1
   102    57    58    1
   103    35    58    1
   104    58    37    1
   105    58    36    1
