@<TRIPOS>MOLECULE
142.62025
 102 105 0 0 0
SMALL
GASTEIGER

@<TRIPOS>ATOM
      1 H          15.9430  -13.5390  135.7250 H       1  UNL1        0.0669
      2 H          15.9270  -16.4670  134.7670 H       1  UNL1        0.0619
      3 H          14.8410  -15.0470  137.3260 H       1  UNL1        0.0618
      4 H          14.9100  -17.9880  136.4330 H       1  UNL1        0.0617
      5 H          13.8270  -16.5340  138.9700 H       1  UNL1        0.0614
      6 H          13.9260  -19.4860  138.1210 H       1  UNL1        0.0569
      7 H          21.9610   -4.9680  128.5760 H       1  UNL1        0.0429
      8 H          23.0580   -5.0120  127.2050 H       1  UNL1        0.0429
      9 H          23.4510   -3.9870  128.6190 H       1  UNL1        0.0429
     10 H          13.9840   -7.9820  131.7490 H       1  UNL1        0.0618
     11 H          17.2610  -12.2440  134.4960 H       1  UNL1        0.1498
     12 H          18.9140  -13.2680  132.4100 H       1  UNL1        0.0598
     13 H          16.8760  -13.0020  131.0120 H       1  UNL1        0.0336
     14 H          14.8580  -12.1520  132.2650 H       1  UNL1        0.0620
     15 H          17.8470   -9.4860  130.6490 H       1  UNL1        0.0620
     16 H          13.2870  -10.2570  132.4540 H       1  UNL1        0.0618
     17 H          16.2650   -7.6100  130.8480 H       1  UNL1        0.0618
     18 H          18.1440  -11.9090  130.5310 H       1  UNL1        0.0336
     19 H          21.8650  -11.1250  134.0140 H       1  UNL1        0.0721
     20 H          20.0200  -10.9840  131.3500 H       1  UNL1        0.1496
     21 H          20.3220   -9.0460  133.5050 H       1  UNL1        0.0629
     22 H          22.5880   -9.5160  134.0770 H       1  UNL1        0.0721
     23 H          22.8090   -7.5500  133.5150 H       1  UNL1        0.0465
     24 H          21.1010   -6.6340  129.8920 H       1  UNL1        0.0597
     25 H          21.0470   -4.8520  131.4820 H       1  UNL1        0.0288
     26 H          22.5410   -4.8280  133.3920 H       1  UNL1        0.0281
     27 H          21.1950   -6.8050  133.5790 H       1  UNL1        0.0465
     28 H          22.6210   -4.4680  130.7770 H       1  UNL1        0.0288
     29 H          23.7970   -5.6840  132.4840 H       1  UNL1        0.0281
     30 H          26.8150   -5.8490  132.6800 H       1  UNL1        0.0252
     31 H          26.8020   -7.9270  129.4030 H       1  UNL1        0.1495
     32 H          28.2850   -8.0870  131.1950 H       1  UNL1        0.0592
     33 H          28.3710   -5.6540  131.8440 H       1  UNL1        0.0252
     34 H          28.2130   -6.7650  133.2170 H       1  UNL1        0.0252
     35 H          12.8590  -17.9970  140.6310 H       1  UNL1        0.0272
     36 H          13.6750  -19.5710  140.6540 H       1  UNL1        0.0272
     37 H          12.0860  -19.4050  139.8810 H       1  UNL1        0.0272
     38 H          26.8050   -5.5110  127.2590 H       1  UNL1        0.0252
     39 H          25.2760   -7.2650  128.1260 H       1  UNL1        0.0594
     40 H          25.6850   -4.2450  127.7600 H       1  UNL1        0.0252
     41 H          25.2140   -5.3960  126.4940 H       1  UNL1        0.0252
     42 H          27.2160  -12.1980  132.8130 H       1  UNL1        0.0314
     43 H          24.6600  -10.2470  130.7360 H       1  UNL1        0.0616
     44 H          25.8230  -12.1250  130.0980 H       1  UNL1        0.0292
     45 H          28.4290  -10.1990  132.2080 H       1  UNL1        0.0467
     46 H          28.2210  -12.8030  129.9740 H       1  UNL1        0.0233
     47 H          29.1820  -12.9020  131.4580 H       1  UNL1        0.0233
     48 H          25.2350  -12.8620  131.5980 H       1  UNL1        0.0292
     49 H          27.9750  -10.3470  130.4880 H       1  UNL1        0.0467
     50 H          27.8170  -14.0050  131.2100 H       1  UNL1        0.0233
     51 C          16.8450  -14.1620  133.8100 C.2     1  UNL1        0.2375
     52 C          16.1200  -14.3920  135.0830 C.2     1  UNL1        0.0001
     53 C          15.7250  -15.6260  135.4300 C.2     1  UNL1       -0.0569
     54 C          15.0500  -15.8980  136.6800 C.2     1  UNL1       -0.0616
     55 C          14.6980  -17.1310  137.0700 C.2     1  UNL1       -0.0621
     56 C          14.0450  -17.3900  138.3340 C.2     1  UNL1       -0.0659
     57 C          13.7110  -18.6220  138.7460 C.2     1  UNL1       -0.0871
     58 C          13.0450  -18.9080  140.0530 C.3     1  UNL1       -0.0465
     59 O          16.9840  -15.0190  132.9490 O.2     1  UNL1       -0.2708
     60 N          17.3560  -12.8990  133.7260 N.am    1  UNL1       -0.3002
     61 C          18.2130  -12.4520  132.6290 C.3     1  UNL1        0.1036
     62 C          19.0460  -11.2790  133.1830 C.2     1  UNL1        0.2344
     63 O          18.9460  -10.9080  134.3560 O.2     1  UNL1       -0.2738
     64 C          17.4380  -12.1190  131.3440 C.3     1  UNL1       -0.0006
     65 C          16.4730  -10.9590  131.4570 C.ar    1  UNL1       -0.0451
     66 C          15.1800  -11.1590  131.9600 C.ar    1  UNL1       -0.0585
     67 C          16.8540   -9.6710  131.0560 C.ar    1  UNL1       -0.0585
     68 C          14.2890  -10.0910  132.0660 C.ar    1  UNL1       -0.0615
     69 C          15.9610   -8.6040  131.1640 C.ar    1  UNL1       -0.0615
     70 C          14.6790   -8.8130  131.6690 C.ar    1  UNL1       -0.0617
     71 N          19.9590  -10.7190  132.3290 N.am    1  UNL1       -0.2997
     72 C          20.8630   -9.6440  132.7630 C.3     1  UNL1        0.1340
     73 C          21.1330   -8.7550  131.5200 C.2     1  UNL1        0.2399
     74 O          20.7670   -9.1300  130.3980 O.2     1  UNL1       -0.2734
     75 C          22.1200  -10.2460  133.4100 C.3     1  UNL1        0.1193
     76 O          23.0410  -10.6510  132.3930 O.3     1  UNL1       -0.4610
     77 N          21.7210   -7.5240  131.7040 N.am    1  UNL1       -0.2883
     78 C          21.9540   -6.5980  130.5790 C.3     1  UNL1        0.1025
     79 C          23.2310   -6.9750  129.7650 C.2     1  UNL1        0.2365
     80 O          23.7690   -8.0820  129.8720 O.2     1  UNL1       -0.2735
     81 C          22.0550   -5.2420  131.2950 C.3     1  UNL1       -0.0243
     82 C          22.7140   -5.5840  132.6220 C.3     1  UNL1       -0.0350
     83 C          22.1000   -6.9240  132.9750 C.3     1  UNL1        0.0156
     84 N          23.7680   -6.0350  128.8790 N.am    1  UNL1       -0.2917
     85 C          23.0150   -4.9360  128.2950 C.3     1  UNL1        0.0040
     86 C          25.1840   -6.2390  128.5020 C.3     1  UNL1        0.0991
     87 C          25.7470   -5.2920  127.4440 C.3     1  UNL1       -0.0379
     88 C          26.0340   -6.0770  129.7930 C.2     1  UNL1        0.2339
     89 O          25.9420   -5.0840  130.5110 O.2     1  UNL1       -0.2738
     90 N          26.8610   -7.1550  130.0530 N.am    1  UNL1       -0.3027
     91 C          27.3690   -7.5230  131.3830 C.3     1  UNL1        0.0968
     92 C          26.2730   -8.4420  131.9690 C.2     1  UNL1        0.2363
     93 O          25.2290   -7.9880  132.4400 O.2     1  UNL1       -0.2736
     94 C          27.7060   -6.3780  132.3250 C.3     1  UNL1       -0.0381
     95 C          24.3420  -10.7330  132.7980 C.2     1  UNL1        0.3279
     96 N          26.4200   -9.7970  131.7380 N.am    1  UNL1       -0.2862
     97 O          24.7150  -10.8540  133.9570 O.2     1  UNL1       -0.2487
     98 C          25.2440  -10.6520  131.5680 C.3     1  UNL1        0.1233
     99 C          25.8100  -12.0240  131.1910 C.3     1  UNL1       -0.0199
    100 C          27.6490  -10.5330  131.5170 C.3     1  UNL1        0.0182
    101 C          28.1680  -12.9800  131.0530 C.3     1  UNL1       -0.0609
    102 C          27.2430  -11.9880  131.7350 C.3     1  UNL1       -0.0258
@<TRIPOS>BOND
     1    41    87    1
     2     8    85    1
     3    38    87    1
     4    87    40    1
     5    87    86    1
     6    39    86    1
     7    85     7    1
     8    85     9    1
     9    85    84    1
    10    86    84    1
    11    86    88    1
    12    84    79   am
    13    31    90    1
    14    79    80    2
    15    79    78    1
    16    88    90   am
    17    88    89    2
    18    24    78    1
    19    46   101    1
    20    90    91    1
    21    44    99    1
    22    74    73    2
    23    49   100    1
    24    18    64    1
    25    78    81    1
    26    78    77    1
    27    15    67    1
    28    43    98    1
    29    28    81    1
    30    17    69    1
    31    13    64    1
    32   101    50    1
    33   101    47    1
    34   101   102    1
    35    67    69   ar
    36    67    65   ar
    37    69    70   ar
    38    99    98    1
    39    99    48    1
    40    99   102    1
    41    32    91    1
    42    81    25    1
    43    81    82    1
    44    64    65    1
    45    64    61    1
    46    20    71    1
    47    91    92    1
    48    91    94    1
    49    65    66   ar
    50   100   102    1
    51   100    96    1
    52   100    45    1
    53    73    77   am
    54    73    72    1
    55    98    96    1
    56    98    95    1
    57    70    10    1
    58    70    68   ar
    59    77    83    1
    60   102    42    1
    61    96    92   am
    62    33    94    1
    63    66    68   ar
    64    66    14    1
    65    92    93    2
    66    68    16    1
    67    94    30    1
    68    94    34    1
    69    71    72    1
    70    71    62   am
    71    76    95    1
    72    76    75    1
    73    12    61    1
    74    29    82    1
    75    82    83    1
    76    82    26    1
    77    61    62    1
    78    61    60    1
    79    72    75    1
    80    72    21    1
    81    95    97    2
    82    59    51    2
    83    83    23    1
    84    83    27    1
    85    62    63    2
    86    75    19    1
    87    75    22    1
    88    60    51   am
    89    60    11    1
    90    51    52    1
    91     2    53    1
    92    52    53    2
    93    52     1    1
    94    53    54    1
    95     4    55    1
    96    54    55    2
    97    54     3    1
    98    55    56    1
    99     6    57    1
   100    56    57    2
   101    56     5    1
   102    57    58    1
   103    37    58    1
   104    58    35    1
   105    58    36    1
