@<TRIPOS>MOLECULE
124.23710
 102 105 0 0 0
SMALL
GASTEIGER

@<TRIPOS>ATOM
      1 H          29.6640   -9.6830  114.3070 H       1  UNL1        0.0669
      2 H          30.9460  -12.3470  115.1710 H       1  UNL1        0.0619
      3 H          28.0340  -11.2440  115.3660 H       1  UNL1        0.0618
      4 H          29.3670  -13.8650  116.2650 H       1  UNL1        0.0617
      5 H          26.4570  -12.7680  116.4670 H       1  UNL1        0.0614
      6 H          27.7970  -15.3790  117.3810 H       1  UNL1        0.0569
      7 H          32.7870   -3.2950  110.4140 H       1  UNL1        0.0429
      8 H          33.0450   -1.6740  109.7350 H       1  UNL1        0.0429
      9 H          31.6430   -1.9960  110.7970 H       1  UNL1        0.0429
     10 H          38.7070   -7.3030  110.6460 H       1  UNL1        0.0618
     11 H          31.2250   -8.1540  113.7200 H       1  UNL1        0.1498
     12 H          34.0550   -8.8080  113.9160 H       1  UNL1        0.0598
     13 H          32.8900   -7.8780  111.2110 H       1  UNL1        0.0336
     14 H          34.5720   -6.1820  110.7040 H       1  UNL1        0.0620
     15 H          35.7830  -10.0880  112.1030 H       1  UNL1        0.0620
     16 H          36.9140   -5.6390  110.2110 H       1  UNL1        0.0618
     17 H          38.1320   -9.5260  111.5860 H       1  UNL1        0.0618
     18 H          33.3600   -9.5320  111.5170 H       1  UNL1        0.0336
     19 H          34.9770   -3.7870  116.3060 H       1  UNL1        0.0721
     20 H          35.3320   -6.8850  114.0500 H       1  UNL1        0.1496
     21 H          34.0200   -4.3030  113.8450 H       1  UNL1        0.0629
     22 H          34.7250   -5.5380  116.5330 H       1  UNL1        0.0721
     23 H          38.3170   -3.7920  112.7310 H       1  UNL1        0.0465
     24 H          34.8510   -2.0830  114.1150 H       1  UNL1        0.0597
     25 H          36.6740   -0.5530  113.9590 H       1  UNL1        0.0288
     26 H          38.6000   -1.0670  112.5700 H       1  UNL1        0.0281
     27 H          38.3540   -2.8170  114.2200 H       1  UNL1        0.0465
     28 H          36.0570   -0.3100  112.3140 H       1  UNL1        0.0288
     29 H          37.5890   -1.9400  111.4030 H       1  UNL1        0.0281
     30 H          29.1710   -3.1550  113.2750 H       1  UNL1        0.0252
     31 H          31.9610   -2.5150  113.5680 H       1  UNL1        0.1495
     32 H          29.9850   -0.7110  114.8620 H       1  UNL1        0.0592
     33 H          28.6640   -1.4920  113.0950 H       1  UNL1        0.0252
     34 H          28.1560   -2.3940  114.5270 H       1  UNL1        0.0252
     35 H          24.9060  -14.2590  117.5790 H       1  UNL1        0.0272
     36 H          25.7160  -15.2140  118.8340 H       1  UNL1        0.0272
     37 H          25.3180  -15.9560  117.2730 H       1  UNL1        0.0272
     38 H          33.2540    1.5890  111.9720 H       1  UNL1        0.0252
     39 H          33.8500   -0.3730  113.2480 H       1  UNL1        0.0594
     40 H          32.5850    0.6220  110.6560 H       1  UNL1        0.0252
     41 H          34.3290    0.6060  110.9630 H       1  UNL1        0.0252
     42 H          30.9130   -6.5250  115.7550 H       1  UNL1        0.0314
     43 H          30.8290   -3.6130  118.2270 H       1  UNL1        0.0616
     44 H          29.2440   -5.3910  118.0430 H       1  UNL1        0.0292
     45 H          30.1550   -4.7700  114.3560 H       1  UNL1        0.0467
     46 H          27.9030   -6.6230  116.3290 H       1  UNL1        0.0233
     47 H          28.7080   -7.3110  114.9100 H       1  UNL1        0.0233
     48 H          30.7260   -6.3610  118.1580 H       1  UNL1        0.0292
     49 H          28.6980   -4.4760  115.3470 H       1  UNL1        0.0467
     50 H          29.0480   -7.9590  116.5250 H       1  UNL1        0.0233
     51 C          31.8100  -10.1330  114.0260 C.2     1  UNL1        0.2375
     52 C          30.4250  -10.4360  114.4580 C.2     1  UNL1        0.0001
     53 C          30.1500  -11.6160  115.0330 C.2     1  UNL1       -0.0569
     54 C          28.8310  -11.9700  115.5090 C.2     1  UNL1       -0.0616
     55 C          28.5710  -13.1370  116.1170 C.2     1  UNL1       -0.0621
     56 C          27.2580  -13.4890  116.6110 C.2     1  UNL1       -0.0659
     57 C          27.0030  -14.6510  117.2310 C.2     1  UNL1       -0.0871
     58 C          25.6580  -15.0350  117.7560 C.3     1  UNL1       -0.0465
     59 O          32.7020  -10.9700  114.0040 O.2     1  UNL1       -0.2708
     60 N          31.9860   -8.8210  113.6810 N.am    1  UNL1       -0.3002
     61 C          33.3000   -8.2970  113.3060 C.3     1  UNL1        0.1036
     62 C          33.2920   -6.8000  113.6620 C.2     1  UNL1        0.2344
     63 O          32.2750   -6.1100  113.5650 O.2     1  UNL1       -0.2738
     64 C          33.5740   -8.4960  111.8090 C.3     1  UNL1       -0.0006
     65 C          35.0020   -8.1810  111.4350 C.ar    1  UNL1       -0.0451
     66 C          35.3370   -6.9330  110.8930 C.ar    1  UNL1       -0.0585
     67 C          36.0190   -9.1130  111.6790 C.ar    1  UNL1       -0.0585
     68 C          36.6670   -6.6190  110.6120 C.ar    1  UNL1       -0.0615
     69 C          37.3470   -8.7990  111.3910 C.ar    1  UNL1       -0.0615
     70 C          37.6720   -7.5510  110.8610 C.ar    1  UNL1       -0.0617
     71 N          34.4980   -6.3000  114.0810 N.am    1  UNL1       -0.2997
     72 C          34.7000   -4.9010  114.4540 C.3     1  UNL1        0.1340
     73 C          36.1640   -4.5550  114.1640 C.2     1  UNL1        0.2399
     74 O          37.0560   -5.3580  114.4580 O.2     1  UNL1       -0.2734
     75 C          34.4270   -4.6620  115.9430 C.3     1  UNL1        0.1193
     76 O          33.0270   -4.3760  116.1030 O.3     1  UNL1       -0.4610
     77 N          36.4500   -3.3340  113.5970 N.am    1  UNL1       -0.2883
     78 C          35.5180   -2.2440  113.2620 C.3     1  UNL1        0.1025
     79 C          34.6650   -2.5720  112.0050 C.2     1  UNL1        0.2365
     80 O          34.9960   -3.4930  111.2520 O.2     1  UNL1       -0.2735
     81 C          36.4490   -1.0550  113.0090 C.3     1  UNL1       -0.0243
     82 C          37.7170   -1.7040  112.4660 C.3     1  UNL1       -0.0350
     83 C          37.8220   -2.9830  113.2770 C.3     1  UNL1        0.0156
     84 N          33.5090   -1.8300  111.7630 N.am    1  UNL1       -0.2917
     85 C          32.6960   -2.2240  110.6140 C.3     1  UNL1        0.0040
     86 C          33.1680   -0.5400  112.4110 C.3     1  UNL1        0.0991
     87 C          33.3460    0.6330  111.4440 C.3     1  UNL1       -0.0379
     88 C          31.7610   -0.5140  113.0520 C.2     1  UNL1        0.2339
     89 O          31.1060    0.5220  113.1500 O.2     1  UNL1       -0.2738
     90 N          31.3860   -1.6860  113.6740 N.am    1  UNL1       -0.3027
     91 C          30.2250   -1.7410  114.5610 C.3     1  UNL1        0.0968
     92 C          30.6620   -2.3970  115.8910 C.2     1  UNL1        0.2363
     93 O          31.3560   -1.7320  116.6750 O.2     1  UNL1       -0.2736
     94 C          28.9870   -2.2350  113.8350 C.3     1  UNL1       -0.0381
     95 C          32.5080   -4.6010  117.3420 C.2     1  UNL1        0.3279
     96 N          30.4550   -3.7290  116.1550 N.am    1  UNL1       -0.2862
     97 O          33.1460   -5.0390  118.2930 O.2     1  UNL1       -0.2487
     98 C          30.9960   -4.3060  117.3940 C.3     1  UNL1        0.1233
     99 C          30.2070   -5.6030  117.5620 C.3     1  UNL1       -0.0199
    100 C          29.7590   -4.7390  115.3730 C.3     1  UNL1        0.0182
    101 C          28.8460   -7.0420  115.9630 C.3     1  UNL1       -0.0609
    102 C          29.9910   -6.0570  116.1160 C.3     1  UNL1       -0.0258
@<TRIPOS>BOND
     1     8    85    1
     2    16    68    1
     3     7    85    1
     4    68    70   ar
     5    68    66   ar
     6    85     9    1
     7    85    84    1
     8    10    70    1
     9    40    87    1
    10    14    66    1
    11    70    69   ar
    12    66    65   ar
    13    41    87    1
    14    13    64    1
    15    80    79    2
    16    69    17    1
    17    69    67   ar
    18    29    82    1
    19    65    67   ar
    20    65    64    1
    21    87    38    1
    22    87    86    1
    23    18    64    1
    24    67    15    1
    25    84    79   am
    26    84    86    1
    27    64    61    1
    28    79    78    1
    29    28    81    1
    30    86    88    1
    31    86    39    1
    32    82    26    1
    33    82    81    1
    34    82    83    1
    35    23    83    1
    36    81    78    1
    37    81    25    1
    38    88    89    2
    39    88    90   am
    40    33    94    1
    41    78    77    1
    42    78    24    1
    43    30    94    1
    44    83    77    1
    45    83    27    1
    46    61    62    1
    47    61    60    1
    48    61    12    1
    49    63    62    2
    50    31    90    1
    51    77    73   am
    52    62    71   am
    53    90    91    1
    54    60    11    1
    55    60    51   am
    56    94    34    1
    57    94    91    1
    58    21    72    1
    59    59    51    2
    60    51    52    1
    61    20    71    1
    62    71    72    1
    63    73    72    1
    64    73    74    2
    65     1    52    1
    66    45   100    1
    67    72    75    1
    68    52    53    2
    69    91    32    1
    70    91    92    1
    71    47   101    1
    72    53     2    1
    73    53    54    1
    74    49   100    1
    75     3    54    1
    76   100   102    1
    77   100    96    1
    78    54    55    2
    79    42   102    1
    80    92    96   am
    81    92    93    2
    82    75    76    1
    83    75    19    1
    84    75    22    1
    85   101   102    1
    86   101    46    1
    87   101    50    1
    88    76    95    1
    89   102    99    1
    90    55     4    1
    91    55    56    1
    92    96    98    1
    93     5    56    1
    94    56    57    2
    95    57     6    1
    96    57    58    1
    97    37    58    1
    98    95    98    1
    99    95    97    2
   100    98    99    1
   101    98    43    1
   102    99    44    1
   103    99    48    1
   104    35    58    1
   105    58    36    1
