@<TRIPOS>MOLECULE
146.85629
 102 105 0 0 0
SMALL
GASTEIGER

@<TRIPOS>ATOM
      1 H          22.3830    0.1150  129.0610 H       1  UNL1        0.0669
      2 H          24.3080   -1.1350  131.1190 H       1  UNL1        0.0619
      3 H          23.9980    1.7600  129.9960 H       1  UNL1        0.0618
      4 H          25.9110    0.4790  132.0340 H       1  UNL1        0.0617
      5 H          25.6470    3.3550  130.8610 H       1  UNL1        0.0614
      6 H          27.5390    2.0820  132.9230 H       1  UNL1        0.0569
      7 H          28.1910   -9.9960  127.6980 H       1  UNL1        0.0429
      8 H          28.0410   -8.9740  129.1450 H       1  UNL1        0.0429
      9 H          29.6520   -9.2950  128.4160 H       1  UNL1        0.0429
     10 H          18.5330   -8.6240  125.7890 H       1  UNL1        0.0618
     11 H          21.4370   -1.4860  127.8100 H       1  UNL1        0.1498
     12 H          21.1520   -4.2590  128.8780 H       1  UNL1        0.0598
     13 H          20.1440   -3.0060  126.2320 H       1  UNL1        0.0336
     14 H          20.6430   -5.0030  124.8670 H       1  UNL1        0.0620
     15 H          18.4200   -5.3460  128.5550 H       1  UNL1        0.0620
     16 H          19.9740   -7.3000  124.2640 H       1  UNL1        0.0618
     17 H          17.7610   -7.6400  127.9300 H       1  UNL1        0.0618
     18 H          19.1760   -3.1220  127.6780 H       1  UNL1        0.0336
     19 H          26.4450   -4.4190  128.7540 H       1  UNL1        0.0721
     20 H          23.2150   -5.0670  128.8200 H       1  UNL1        0.1496
     21 H          24.7680   -4.7390  126.2950 H       1  UNL1        0.0629
     22 H          25.1470   -3.2520  128.7210 H       1  UNL1        0.0721
     23 H          25.1210   -6.6350  124.6620 H       1  UNL1        0.0465
     24 H          26.0450   -8.9640  127.6050 H       1  UNL1        0.0597
     25 H          25.3820  -10.3450  125.8010 H       1  UNL1        0.0288
     26 H          23.4550   -9.0450  125.5380 H       1  UNL1        0.0281
     27 H          23.5610   -6.6440  125.5320 H       1  UNL1        0.0465
     28 H          26.3130   -9.3910  124.6530 H       1  UNL1        0.0288
     29 H          24.1360   -8.7540  123.9290 H       1  UNL1        0.0281
     30 H          30.6820   -6.4060  123.3210 H       1  UNL1        0.0252
     31 H          28.6800   -5.8250  125.3950 H       1  UNL1        0.1495
     32 H          31.0430   -4.0650  125.2700 H       1  UNL1        0.0592
     33 H          31.9520   -6.2770  124.5440 H       1  UNL1        0.0252
     34 H          31.9100   -5.1370  123.1920 H       1  UNL1        0.0252
     35 H          27.2910    4.9240  131.6950 H       1  UNL1        0.0272
     36 H          28.8130    4.1230  132.1220 H       1  UNL1        0.0272
     37 H          27.6690    4.5890  133.3950 H       1  UNL1        0.0272
     38 H          29.9430   -5.6390  129.5080 H       1  UNL1        0.0252
     39 H          28.2220   -5.9330  127.7900 H       1  UNL1        0.0594
     40 H          30.4400   -7.3250  129.3500 H       1  UNL1        0.0252
     41 H          28.8170   -6.9240  129.9500 H       1  UNL1        0.0252
     42 H          26.1180   -1.6030  124.4880 H       1  UNL1        0.0314
     43 H          29.2170   -2.8060  126.3390 H       1  UNL1        0.0616
     44 H          28.7690   -0.5530  125.6020 H       1  UNL1        0.0292
     45 H          27.3220   -2.5870  122.7060 H       1  UNL1        0.0467
     46 H          27.8790    0.7730  123.6700 H       1  UNL1        0.0233
     47 H          26.3810    0.2660  122.8700 H       1  UNL1        0.0233
     48 H          27.2860   -0.8760  126.5100 H       1  UNL1        0.0292
     49 H          28.6890   -1.4590  122.8570 H       1  UNL1        0.0467
     50 H          26.3380    0.8680  124.5370 H       1  UNL1        0.0233
     51 C          22.3680   -2.0390  129.5720 C.2     1  UNL1        0.2375
     52 C          22.8450   -0.6390  129.6860 C.2     1  UNL1        0.0001
     53 C          23.8600   -0.3480  130.5120 C.2     1  UNL1       -0.0569
     54 C          24.4320    0.9770  130.6150 C.2     1  UNL1       -0.0616
     55 C          25.4720    1.2590  131.4140 C.2     1  UNL1       -0.0621
     56 C          26.0690    2.5730  131.4910 C.2     1  UNL1       -0.0659
     57 C          27.1090    2.8540  132.2890 C.2     1  UNL1       -0.0871
     58 C          27.7520    4.2010  132.3750 C.3     1  UNL1       -0.0465
     59 O          22.7250   -2.9340  130.3250 O.2     1  UNL1       -0.2708
     60 N          21.5690   -2.2390  128.4740 N.am    1  UNL1       -0.3002
     61 C          21.2610   -3.5960  128.0120 C.3     1  UNL1        0.1036
     62 C          22.5040   -3.9840  127.1930 C.2     1  UNL1        0.2344
     63 O          22.7460   -3.4830  126.0950 O.2     1  UNL1       -0.2738
     64 C          20.0010   -3.6070  127.1400 C.3     1  UNL1       -0.0006
     65 C          19.5770   -5.0040  126.7550 C.ar    1  UNL1       -0.0451
     66 C          20.0100   -5.5710  125.5480 C.ar    1  UNL1       -0.0585
     67 C          18.7680   -5.7620  127.6120 C.ar    1  UNL1       -0.0585
     68 C          19.6360   -6.8700  125.2030 C.ar    1  UNL1       -0.0615
     69 C          18.3940   -7.0600  127.2630 C.ar    1  UNL1       -0.0615
     70 C          18.8270   -7.6130  126.0600 C.ar    1  UNL1       -0.0617
     71 N          23.4160   -4.7660  127.8700 N.am    1  UNL1       -0.2997
     72 C          24.7800   -4.9280  127.3700 C.3     1  UNL1        0.1340
     73 C          25.2790   -6.3610  127.6610 C.2     1  UNL1        0.2399
     74 O          25.6710   -6.6900  128.7850 O.2     1  UNL1       -0.2734
     75 C          25.7320   -3.9260  128.0840 C.3     1  UNL1        0.1193
     76 O          26.5150   -3.0420  127.2450 O.3     1  UNL1       -0.4610
     77 N          25.2520   -7.2730  126.6310 N.am    1  UNL1       -0.2883
     78 C          26.1120   -8.4640  126.6350 C.3     1  UNL1        0.1025
     79 C          27.5420   -7.9390  126.3260 C.2     1  UNL1        0.2365
     80 O          27.7950   -7.3700  125.2610 O.2     1  UNL1       -0.2735
     81 C          25.5910   -9.3210  125.4750 C.3     1  UNL1       -0.0243
     82 C          24.3140   -8.6260  125.0000 C.3     1  UNL1       -0.0350
     83 C          24.5080   -7.1730  125.3930 C.3     1  UNL1        0.0156
     84 N          28.4520   -7.9390  127.3760 N.am    1  UNL1       -0.2917
     85 C          28.5920   -9.1170  128.2120 C.3     1  UNL1        0.0040
     86 C          29.0520   -6.6480  127.7960 C.3     1  UNL1        0.0991
     87 C          29.5930   -6.6410  129.2320 C.3     1  UNL1       -0.0379
     88 C          30.1220   -6.0230  126.8510 C.2     1  UNL1        0.2339
     89 O          31.2980   -5.8710  127.1780 O.2     1  UNL1       -0.2738
     90 N          29.6190   -5.5160  125.6750 N.am    1  UNL1       -0.3027
     91 C          30.3980   -4.7550  124.7110 C.3     1  UNL1        0.0968
     92 C          29.5150   -3.8860  123.7640 C.2     1  UNL1        0.2363
     93 O          29.6920   -3.9100  122.5400 O.2     1  UNL1       -0.2736
     94 C          31.2860   -5.6960  123.8980 C.3     1  UNL1       -0.0381
     95 C          27.2210   -3.5980  126.2270 C.2     1  UNL1        0.3279
     96 N          28.6390   -2.9560  124.3010 N.am    1  UNL1       -0.2862
     97 O          27.0600   -4.7480  125.8470 O.2     1  UNL1       -0.2487
     98 C          28.3340   -2.6680  125.7090 C.3     1  UNL1        0.1233
     99 C          27.8870   -1.2040  125.6570 C.3     1  UNL1       -0.0199
    100 C          27.9400   -2.0300  123.4170 C.3     1  UNL1        0.0182
    101 C          26.9180    0.2710  123.8240 C.3     1  UNL1       -0.0609
    102 C          27.1040   -1.1440  124.3410 C.3     1  UNL1       -0.0258
@<TRIPOS>BOND
     1    93    92    2
     2    45   100    1
     3    49   100    1
     4    47   101    1
     5    34    94    1
     6    30    94    1
     7   100    96    1
     8   100   102    1
     9    46   101    1
    10    92    96   am
    11    92    91    1
    12   101   102    1
    13   101    50    1
    14    94    33    1
    15    94    91    1
    16    29    82    1
    17    16    68    1
    18    96    98    1
    19   102    42    1
    20   102    99    1
    21    28    81    1
    22    23    83    1
    23    91    32    1
    24    91    90    1
    25    14    66    1
    26    82    83    1
    27    82    81    1
    28    82    26    1
    29    68    66   ar
    30    68    70   ar
    31    80    79    2
    32    83    27    1
    33    83    77    1
    34    31    90    1
    35    81    25    1
    36    81    78    1
    37    66    65   ar
    38    44    99    1
    39    99    98    1
    40    99    48    1
    41    90    88   am
    42    98    95    1
    43    98    43    1
    44    10    70    1
    45    97    95    2
    46    70    69   ar
    47    63    62    2
    48    95    76    1
    49    13    64    1
    50    21    72    1
    51    79    78    1
    52    79    84   am
    53    77    78    1
    54    77    73   am
    55    78    24    1
    56    65    64    1
    57    65    67   ar
    58    88    89    2
    59    88    86    1
    60    64    18    1
    61    64    61    1
    62    62    71   am
    63    62    61    1
    64    76    75    1
    65    69    67   ar
    66    69    17    1
    67    72    73    1
    68    72    71    1
    69    72    75    1
    70    84    86    1
    71    84    85    1
    72    67    15    1
    73    73    74    2
    74     7    85    1
    75    39    86    1
    76    86    87    1
    77    11    60    1
    78    71    20    1
    79    61    60    1
    80    61    12    1
    81    75    22    1
    82    75    19    1
    83    85     9    1
    84    85     8    1
    85    60    51   am
    86     1    52    1
    87    87    40    1
    88    87    38    1
    89    87    41    1
    90    51    52    1
    91    51    59    2
    92    52    53    2
    93     3    54    1
    94    53    54    1
    95    53     2    1
    96    54    55    2
    97     5    56    1
    98    55    56    1
    99    55     4    1
   100    56    57    2
   101    35    58    1
   102    36    58    1
   103    57    58    1
   104    57     6    1
   105    58    37    1
