@<TRIPOS>MOLECULE
123.36452
 102 105 0 0 0
SMALL
GASTEIGER

@<TRIPOS>ATOM
      1 H          27.4620    5.7590  125.9130 H       1  UNL1        0.0669
      2 H          28.4120    8.0340  124.0630 H       1  UNL1        0.0619
      3 H          26.1120    7.8280  126.1610 H       1  UNL1        0.0618
      4 H          27.0700   10.0720  124.2890 H       1  UNL1        0.0617
      5 H          24.7580    9.8590  126.3680 H       1  UNL1        0.0614
      6 H          25.7140   12.1040  124.4990 H       1  UNL1        0.0569
      7 H          30.1610    1.4800  114.9320 H       1  UNL1        0.0429
      8 H          31.2460    2.3980  113.8760 H       1  UNL1        0.0429
      9 H          29.6080    3.0060  114.2410 H       1  UNL1        0.0429
     10 H          34.4420   -0.8300  122.8630 H       1  UNL1        0.0618
     11 H          28.4420    3.7990  125.3920 H       1  UNL1        0.1498
     12 H          31.0440    3.8370  123.9510 H       1  UNL1        0.0598
     13 H          29.5080    1.4250  125.1150 H       1  UNL1        0.0336
     14 H          30.2360   -0.1470  123.3680 H       1  UNL1        0.0620
     15 H          33.1050    2.4150  125.3320 H       1  UNL1        0.0620
     16 H          32.0870   -1.4480  122.3850 H       1  UNL1        0.0618
     17 H          34.9420    1.1010  124.3370 H       1  UNL1        0.0618
     18 H          30.6770    2.3470  126.0270 H       1  UNL1        0.0336
     19 H          28.2360    5.7290  120.4730 H       1  UNL1        0.0721
     20 H          30.2460    4.6430  122.0240 H       1  UNL1        0.1496
     21 H          28.6650    2.6970  120.3620 H       1  UNL1        0.0629
     22 H          27.2370    4.5500  121.3360 H       1  UNL1        0.0721
     23 H          30.8250    1.5070  120.5560 H       1  UNL1        0.0465
     24 H          32.3440    4.2450  117.9190 H       1  UNL1        0.0597
     25 H          34.0060    3.1240  119.0810 H       1  UNL1        0.0288
     26 H          33.5430    1.1070  120.2970 H       1  UNL1        0.0281
     27 H          32.0030    2.7220  121.1310 H       1  UNL1        0.0465
     28 H          33.8560    1.9600  117.7520 H       1  UNL1        0.0288
     29 H          32.4040    0.5390  119.0730 H       1  UNL1        0.0281
     30 H          27.2080    4.5750  113.8040 H       1  UNL1        0.0252
     31 H          29.0350    4.8800  116.6440 H       1  UNL1        0.1495
     32 H          27.9690    7.0680  115.3770 H       1  UNL1        0.0592
     33 H          27.7200    6.1470  113.2190 H       1  UNL1        0.0252
     34 H          26.1060    5.9630  113.9100 H       1  UNL1        0.0252
     35 H          23.4040   11.8560  126.5610 H       1  UNL1        0.0272
     36 H          23.3030   12.7220  125.0180 H       1  UNL1        0.0272
     37 H          24.3770   13.3150  126.3010 H       1  UNL1        0.0272
     38 H          32.8220    5.9130  114.5920 H       1  UNL1        0.0252
     39 H          31.5080    5.1730  116.4990 H       1  UNL1        0.0594
     40 H          32.4090    4.4650  113.6730 H       1  UNL1        0.0252
     41 H          33.4180    4.3290  115.1220 H       1  UNL1        0.0252
     42 H          26.4960    1.9950  117.8930 H       1  UNL1        0.0314
     43 H          24.4080    5.1980  117.7940 H       1  UNL1        0.0616
     44 H          23.7970    3.0610  116.9230 H       1  UNL1        0.0292
     45 H          27.5460    3.1420  116.0870 H       1  UNL1        0.0467
     46 H          24.7140    1.2040  115.5200 H       1  UNL1        0.0233
     47 H          26.2870    0.4940  115.9180 H       1  UNL1        0.0233
     48 H          24.2260    2.5490  118.5670 H       1  UNL1        0.0292
     49 H          26.0220    3.2980  115.1760 H       1  UNL1        0.0467
     50 H          24.9150    0.2870  117.0210 H       1  UNL1        0.0233
     51 C          29.1510    5.5340  124.5010 C.2     1  UNL1        0.2375
     52 C          28.0530    6.2740  125.1660 C.2     1  UNL1        0.0001
     53 C          27.8020    7.5460  124.8220 C.2     1  UNL1       -0.0569
     54 C          26.7270    8.3170  125.4070 C.2     1  UNL1       -0.0616
     55 C          26.4620    9.5810  125.0470 C.2     1  UNL1       -0.0621
     56 C          25.3760   10.3460  125.6170 C.2     1  UNL1       -0.0659
     57 C          25.1050   11.6080  125.2520 C.2     1  UNL1       -0.0871
     58 C          23.9830   12.4150  125.8190 C.3     1  UNL1       -0.0465
     59 O          29.9150    6.0430  123.6890 O.2     1  UNL1       -0.2708
     60 N          29.1870    4.2040  124.8380 N.am    1  UNL1       -0.3002
     61 C          30.1130    3.2950  124.1620 C.3     1  UNL1        0.1036
     62 C          29.4260    2.9300  122.8340 C.2     1  UNL1        0.2344
     63 O          28.5960    2.0300  122.7300 O.2     1  UNL1       -0.2738
     64 C          30.4040    2.0500  125.0050 C.3     1  UNL1       -0.0006
     65 C          31.5340    1.2280  124.4270 C.ar    1  UNL1       -0.0451
     66 C          31.2640    0.1360  123.5910 C.ar    1  UNL1       -0.0585
     67 C          32.8680    1.5710  124.6870 C.ar    1  UNL1       -0.0585
     68 C          32.3080   -0.6010  123.0300 C.ar    1  UNL1       -0.0615
     69 C          33.9100    0.8330  124.1250 C.ar    1  UNL1       -0.0615
     70 C          33.6300   -0.2530  123.2970 C.ar    1  UNL1       -0.0617
     71 N          29.7120    3.8020  121.8060 N.am    1  UNL1       -0.2997
     72 C          29.0550    3.7130  120.5050 C.3     1  UNL1        0.1340
     73 C          30.0500    3.9490  119.3390 C.2     1  UNL1        0.2399
     74 O          29.7950    4.7150  118.4030 O.2     1  UNL1       -0.2734
     75 C          27.8740    4.6940  120.4560 C.3     1  UNL1        0.1193
     76 O          27.1420    4.5120  119.2360 O.3     1  UNL1       -0.4610
     77 N          31.1770    3.1500  119.2760 N.am    1  UNL1       -0.2883
     78 C          32.0710    3.2110  118.1180 C.3     1  UNL1        0.1025
     79 C          31.3930    2.5050  116.9110 C.2     1  UNL1        0.2365
     80 O          31.1300    1.2970  116.9890 O.2     1  UNL1       -0.2735
     81 C          33.3150    2.4400  118.5730 C.3     1  UNL1       -0.0243
     82 C          32.7800    1.4320  119.5840 C.3     1  UNL1       -0.0350
     83 C          31.6360    2.1750  120.2570 C.3     1  UNL1        0.0156
     84 N          31.0360    3.2330  115.7790 N.am    1  UNL1       -0.2917
     85 C          30.4780    2.4870  114.6500 C.3     1  UNL1        0.0040
     86 C          31.3140    4.6740  115.5500 C.3     1  UNL1        0.0991
     87 C          32.5610    4.8530  114.6850 C.3     1  UNL1       -0.0379
     88 C          30.0960    5.4330  114.9690 C.2     1  UNL1        0.2339
     89 O          30.1740    6.1690  113.9900 O.2     1  UNL1       -0.2738
     90 N          28.9410    5.2890  115.7100 N.am    1  UNL1       -0.3027
     91 C          27.7090    6.0010  115.3860 C.3     1  UNL1        0.0968
     92 C          26.6400    5.8310  116.4880 C.2     1  UNL1        0.2363
     93 O          26.1910    6.8270  117.0650 O.2     1  UNL1       -0.2736
     94 C          27.1500    5.6470  114.0090 C.3     1  UNL1       -0.0381
     95 C          25.7850    4.5250  119.2900 C.2     1  UNL1        0.3279
     96 N          26.1610    4.5750  116.7990 N.am    1  UNL1       -0.2862
     97 O          25.1230    4.5380  120.3210 O.2     1  UNL1       -0.2487
     98 C          25.1760    4.4210  117.8800 C.3     1  UNL1        0.1233
     99 C          24.6120    3.0180  117.6570 C.3     1  UNL1       -0.0199
    100 C          26.4690    3.2970  116.1750 C.3     1  UNL1        0.0182
    101 C          25.4070    0.9890  116.3410 C.3     1  UNL1       -0.0609
    102 C          25.8080    2.2550  117.0770 C.3     1  UNL1       -0.0258
@<TRIPOS>BOND
     1    33    94    1
     2    40    87    1
     3    30    94    1
     4     8    85    1
     5    34    94    1
     6    89    88    2
     7    94    91    1
     8     9    85    1
     9    38    87    1
    10    85     7    1
    11    85    84    1
    12    87    41    1
    13    87    86    1
    14    88    86    1
    15    88    90   am
    16    49   100    1
    17    32    91    1
    18    91    90    1
    19    91    92    1
    20    46   101    1
    21    86    84    1
    22    86    39    1
    23    90    31    1
    24    84    79   am
    25    47   101    1
    26    45   100    1
    27   100    96    1
    28   100   102    1
    29   101    50    1
    30   101   102    1
    31    92    96   am
    32    92    93    2
    33    96    98    1
    34    79    80    2
    35    79    78    1
    36    44    99    1
    37   102    99    1
    38   102    42    1
    39    99    98    1
    40    99    48    1
    41    28    81    1
    42    43    98    1
    43    98    95    1
    44    24    78    1
    45    78    81    1
    46    78    77    1
    47    74    73    2
    48    81    25    1
    49    81    82    1
    50    29    82    1
    51    76    95    1
    52    76    75    1
    53    77    73   am
    54    77    83    1
    55    95    97    2
    56    73    72    1
    57    82    83    1
    58    82    26    1
    59    83    23    1
    60    83    27    1
    61    21    72    1
    62    75    19    1
    63    75    72    1
    64    75    22    1
    65    72    71    1
    66    71    20    1
    67    71    62   am
    68    16    68    1
    69    63    62    2
    70    62    61    1
    71    10    70    1
    72    68    70   ar
    73    68    66   ar
    74    70    69   ar
    75    14    66    1
    76    66    65   ar
    77    59    51    2
    78    12    61    1
    79     2    53    1
    80    69    17    1
    81    69    67   ar
    82    61    60    1
    83    61    64    1
    84     4    55    1
    85    65    67   ar
    86    65    64    1
    87     6    57    1
    88    51    60   am
    89    51    52    1
    90    67    15    1
    91    53    52    2
    92    53    54    1
    93    60    11    1
    94    64    13    1
    95    64    18    1
    96    36    58    1
    97    55    54    2
    98    55    56    1
    99    52     1    1
   100    57    56    2
   101    57    58    1
   102    54     3    1
   103    56     5    1
   104    58    37    1
   105    58    35    1
