@<TRIPOS>MOLECULE
137.10924
 102 105 0 0 0
SMALL
GASTEIGER

@<TRIPOS>ATOM
      1 H          34.4660    3.3630  120.8590 H       1  UNL1        0.0669
      2 H          33.3860    1.2030  122.7680 H       1  UNL1        0.0619
      3 H          36.2310    1.7360  121.6140 H       1  UNL1        0.0618
      4 H          35.0230   -0.4610  123.3970 H       1  UNL1        0.0617
      5 H          37.8880    0.0240  122.2700 H       1  UNL1        0.0614
      6 H          36.6370   -2.1840  124.0070 H       1  UNL1        0.0569
      7 H          27.8440   -3.0060  122.8450 H       1  UNL1        0.0429
      8 H          27.9020   -2.4350  124.5250 H       1  UNL1        0.0429
      9 H          29.3720   -3.0720  123.7430 H       1  UNL1        0.0429
     10 H          33.4740    9.7400  122.3750 H       1  UNL1        0.0618
     11 H          32.7720    4.3690  119.7900 H       1  UNL1        0.1498
     12 H          30.2150    4.7480  121.1950 H       1  UNL1        0.0598
     13 H          29.7560    6.4150  119.3470 H       1  UNL1        0.0336
     14 H          29.9920    7.2940  121.8340 H       1  UNL1        0.0620
     15 H          33.2360    7.1190  118.9880 H       1  UNL1        0.0620
     16 H          31.2380    8.9820  123.1320 H       1  UNL1        0.0618
     17 H          34.4650    8.8050  120.3040 H       1  UNL1        0.0618
     18 H          31.2240    5.9240  118.5330 H       1  UNL1        0.0336
     19 H          28.6610   -0.7820  119.4830 H       1  UNL1        0.0721
     20 H          30.5230    2.1290  120.5010 H       1  UNL1        0.1496
     21 H          29.0760    1.4720  118.1120 H       1  UNL1        0.0629
     22 H          29.8310   -0.1060  120.6070 H       1  UNL1        0.0721
     23 H          25.0830    1.2670  120.8300 H       1  UNL1        0.0465
     24 H          28.9820    1.3950  122.0160 H       1  UNL1        0.0597
     25 H          27.5740    2.8180  123.3380 H       1  UNL1        0.0288
     26 H          25.1740    2.5160  123.3280 H       1  UNL1        0.0281
     27 H          25.6830    2.9290  121.0330 H       1  UNL1        0.0465
     28 H          27.3970    1.3050  124.2520 H       1  UNL1        0.0288
     29 H          25.3320    0.7670  123.1170 H       1  UNL1        0.0281
     30 H          32.2160   -4.3970  122.7110 H       1  UNL1        0.0252
     31 H          30.3050   -2.1890  121.7470 H       1  UNL1        0.1495
     32 H          33.1560   -1.8270  121.3380 H       1  UNL1        0.0592
     33 H          33.3830   -3.2280  123.3350 H       1  UNL1        0.0252
     34 H          33.7890   -4.2050  121.9190 H       1  UNL1        0.0252
     35 H          39.4910   -1.6930  122.8800 H       1  UNL1        0.0272
     36 H          38.7140   -3.2800  123.0250 H       1  UNL1        0.0272
     37 H          39.1330   -2.3610  124.4830 H       1  UNL1        0.0272
     38 H          30.8180    0.0730  125.6680 H       1  UNL1        0.0252
     39 H          30.0650    0.5310  123.4190 H       1  UNL1        0.0594
     40 H          30.0650   -1.5210  125.6710 H       1  UNL1        0.0252
     41 H          29.0510   -0.0670  125.6420 H       1  UNL1        0.0252
     42 H          31.3500   -1.6610  116.4370 H       1  UNL1        0.0314
     43 H          33.6900   -1.1500  119.4560 H       1  UNL1        0.0616
     44 H          34.2950   -1.7180  117.2380 H       1  UNL1        0.0292
     45 H          30.9570   -3.6400  117.6690 H       1  UNL1        0.0467
     46 H          33.7040   -3.3730  115.4710 H       1  UNL1        0.0233
     47 H          32.0350   -3.4720  114.8850 H       1  UNL1        0.0233
     48 H          33.2960   -0.2980  116.8710 H       1  UNL1        0.0292
     49 H          32.6580   -4.1530  117.6090 H       1  UNL1        0.0467
     50 H          32.9880   -2.0040  114.6060 H       1  UNL1        0.0233
     51 C          32.3360    3.2160  121.4440 C.2     1  UNL1        0.2375
     52 C          33.7630    2.8090  121.4660 C.2     1  UNL1        0.0001
     53 C          34.1300    1.7360  122.1790 C.2     1  UNL1       -0.0569
     54 C          35.4730    1.2010  122.1820 C.2     1  UNL1       -0.0616
     55 C          35.7880    0.0710  122.8320 C.2     1  UNL1       -0.0621
     56 C          37.1130   -0.5050  122.8200 C.2     1  UNL1       -0.0659
     57 C          37.4080   -1.6510  123.4520 C.2     1  UNL1       -0.0871
     58 C          38.7650   -2.2750  123.4560 C.3     1  UNL1       -0.0465
     59 O          31.4820    2.7270  122.1770 O.2     1  UNL1       -0.2708
     60 N          32.0480    4.1020  120.4410 N.am    1  UNL1       -0.3002
     61 C          30.7040    4.6540  120.2160 C.3     1  UNL1        0.1036
     62 C          29.8200    3.6920  119.3790 C.2     1  UNL1        0.2344
     63 O          29.0610    4.0840  118.4970 O.2     1  UNL1       -0.2738
     64 C          30.7680    6.0300  119.5270 C.3     1  UNL1       -0.0006
     65 C          31.5270    7.0700  120.3210 C.ar    1  UNL1       -0.0451
     66 C          30.9750    7.6100  121.4910 C.ar    1  UNL1       -0.0585
     67 C          32.7890    7.5100  119.8990 C.ar    1  UNL1       -0.0585
     68 C          31.6750    8.5660  122.2270 C.ar    1  UNL1       -0.0615
     69 C          33.4880    8.4660  120.6390 C.ar    1  UNL1       -0.0615
     70 C          32.9320    8.9930  121.8020 C.ar    1  UNL1       -0.0617
     71 N          29.8170    2.3870  119.8160 N.am    1  UNL1       -0.2997
     72 C          29.0100    1.3370  119.1980 C.3     1  UNL1        0.1340
     73 C          27.5290    1.5140  119.6110 C.2     1  UNL1        0.2399
     74 O          26.6670    1.6540  118.7370 O.2     1  UNL1       -0.2734
     75 C          29.4880   -0.0690  119.5720 C.3     1  UNL1        0.1193
     76 O          30.5420   -0.6190  118.7670 O.3     1  UNL1       -0.4610
     77 N          27.1730    1.4860  120.9480 N.am    1  UNL1       -0.2883
     78 C          27.9520    1.0680  122.1240 C.3     1  UNL1        0.1025
     79 C          27.8650   -0.4790  122.3350 C.2     1  UNL1        0.2365
     80 O          26.9530   -1.1230  121.8050 O.2     1  UNL1       -0.2735
     81 C          27.2410    1.7750  123.2770 C.3     1  UNL1       -0.0243
     82 C          25.7740    1.7350  122.8520 C.3     1  UNL1       -0.0350
     83 C          25.8290    1.8860  121.3370 C.3     1  UNL1        0.0156
     84 N          28.7810   -1.1230  123.1670 N.am    1  UNL1       -0.2917
     85 C          28.4610   -2.4900  123.5860 C.3     1  UNL1        0.0040
     86 C          30.0050   -0.5100  123.7360 C.3     1  UNL1        0.0991
     87 C          29.9800   -0.5070  125.2650 C.3     1  UNL1       -0.0379
     88 C          31.3250   -1.1480  123.2190 C.2     1  UNL1        0.2339
     89 O          32.4120   -0.8880  123.7330 O.2     1  UNL1       -0.2738
     90 N          31.2260   -1.9460  122.0970 N.am    1  UNL1       -0.3027
     91 C          32.3930   -2.5920  121.4940 C.3     1  UNL1        0.0968
     92 C          31.9860   -3.2720  120.1630 C.2     1  UNL1        0.2363
     93 O          31.3290   -4.3180  120.1770 O.2     1  UNL1       -0.2736
     94 C          32.9770   -3.6650  122.4170 C.3     1  UNL1       -0.0381
     95 C          31.8080   -0.2030  119.0430 C.2     1  UNL1        0.3279
     96 N          32.2750   -2.6420  118.9710 N.am    1  UNL1       -0.2862
     97 O          32.1030    0.9210  119.4240 O.2     1  UNL1       -0.2487
     98 C          32.8440   -1.3040  118.7810 C.3     1  UNL1        0.1233
     99 C          33.2850   -1.2970  117.3180 C.3     1  UNL1       -0.0199
    100 C          31.9930   -3.2870  117.6970 C.3     1  UNL1        0.0182
    101 C          32.7810   -2.8020  115.3260 C.3     1  UNL1       -0.0609
    102 C          32.2710   -2.2230  116.6340 C.3     1  UNL1       -0.0258
@<TRIPOS>BOND
     1    50   101    1
     2    47   101    1
     3   101    46    1
     4   101   102    1
     5    42   102    1
     6   102    99    1
     7   102   100    1
     8    48    99    1
     9    44    99    1
    10    99    98    1
    11    49   100    1
    12    45   100    1
    13   100    96    1
    14    21    72    1
    15    63    62    2
    16    18    64    1
    17    74    73    2
    18    76    95    1
    19    76    75    1
    20    98    96    1
    21    98    95    1
    22    98    43    1
    23    96    92   am
    24    15    67    1
    25    95    97    2
    26    72    75    1
    27    72    73    1
    28    72    71    1
    29    13    64    1
    30    62    71   am
    31    62    61    1
    32    19    75    1
    33    64    61    1
    34    64    65    1
    35    75    22    1
    36    73    77   am
    37    11    60    1
    38    71    20    1
    39    67    65   ar
    40    67    69   ar
    41    92    93    2
    42    92    91    1
    43    61    60    1
    44    61    12    1
    45    17    69    1
    46    65    66   ar
    47    60    51   am
    48    69    70   ar
    49    23    83    1
    50     1    52    1
    51    77    83    1
    52    77    78    1
    53    27    83    1
    54    83    82    1
    55    32    91    1
    56    51    52    1
    57    51    59    2
    58    52    53    2
    59    66    14    1
    60    66    68   ar
    61    91    90    1
    62    91    94    1
    63     3    54    1
    64    31    90    1
    65    70    68   ar
    66    70    10    1
    67    80    79    2
    68    34    94    1
    69    24    78    1
    70    90    88   am
    71    78    79    1
    72    78    81    1
    73    53    54    1
    74    53     2    1
    75    54    55    2
    76    68    16    1
    77     5    56    1
    78    79    84   am
    79    94    30    1
    80    94    33    1
    81    56    55    1
    82    56    57    2
    83    55     4    1
    84     7    85    1
    85    82    29    1
    86    82    81    1
    87    82    26    1
    88    35    58    1
    89    36    58    1
    90    84    85    1
    91    84    86    1
    92    88    89    2
    93    88    86    1
    94    81    25    1
    95    81    28    1
    96    39    86    1
    97    57    58    1
    98    57     6    1
    99    58    37    1
   100    85     9    1
   101    85     8    1
   102    86    87    1
   103    87    41    1
   104    87    38    1
   105    87    40    1
