@<TRIPOS>MOLECULE
137.24257
 102 105 0 0 0
SMALL
GASTEIGER

@<TRIPOS>ATOM
      1 H          32.9340   -4.1760  126.8100 H       1  UNL1        0.0669
      2 H          31.8060   -4.7250  123.9970 H       1  UNL1        0.0619
      3 H          34.6420   -3.9350  125.0290 H       1  UNL1        0.0618
      4 H          33.4770   -4.4130  122.2240 H       1  UNL1        0.0617
      5 H          36.3120   -3.6410  123.2630 H       1  UNL1        0.0614
      6 H          35.1420   -4.0730  120.4540 H       1  UNL1        0.0569
      7 H          25.0140    2.8540  130.0360 H       1  UNL1        0.0429
      8 H          26.2890    3.8260  130.7730 H       1  UNL1        0.0429
      9 H          24.7910    3.5020  131.6810 H       1  UNL1        0.0429
     10 H          24.2820   -5.3900  131.8230 H       1  UNL1        0.0618
     11 H          31.3130   -4.0240  128.3320 H       1  UNL1        0.1498
     12 H          28.5650   -5.0030  127.6570 H       1  UNL1        0.0598
     13 H          29.9360   -4.7290  130.4110 H       1  UNL1        0.0336
     14 H          28.1580   -3.5700  131.6090 H       1  UNL1        0.0620
     15 H          27.2460   -7.0320  129.1900 H       1  UNL1        0.0620
     16 H          25.8840   -3.6350  132.5460 H       1  UNL1        0.0618
     17 H          24.9720   -7.0820  130.1480 H       1  UNL1        0.0618
     18 H          29.6440   -6.2470  129.6000 H       1  UNL1        0.0336
     19 H          26.1330   -0.3230  126.9070 H       1  UNL1        0.0721
     20 H          26.9200   -3.5030  127.9220 H       1  UNL1        0.1496
     21 H          27.3740   -1.1460  129.5070 H       1  UNL1        0.0629
     22 H          27.8470   -0.7150  126.7720 H       1  UNL1        0.0721
     23 H          23.4450   -2.6170  130.4610 H       1  UNL1        0.0465
     24 H          25.0780    0.9000  129.1940 H       1  UNL1        0.0597
     25 H          22.8250    1.0830  129.8160 H       1  UNL1        0.0288
     26 H          21.7900   -0.6050  131.2290 H       1  UNL1        0.0281
     27 H          22.7110   -1.5890  129.2060 H       1  UNL1        0.0465
     28 H          23.4460    1.4500  131.4340 H       1  UNL1        0.0288
     29 H          23.3090   -0.8630  132.1130 H       1  UNL1        0.0281
     30 H          30.3930    0.1260  129.3520 H       1  UNL1        0.0252
     31 H          28.5260    0.6810  131.1930 H       1  UNL1        0.1495
     32 H          30.9990    1.8290  131.8120 H       1  UNL1        0.0592
     33 H          30.7150   -0.4980  130.9770 H       1  UNL1        0.0252
     34 H          31.9770    0.3680  130.0810 H       1  UNL1        0.0252
     35 H          37.9600   -3.3180  121.5220 H       1  UNL1        0.0272
     36 H          37.2170   -2.6480  120.0580 H       1  UNL1        0.0272
     37 H          37.6480   -4.3680  120.1280 H       1  UNL1        0.0272
     38 H          27.5990    1.6870  134.7230 H       1  UNL1        0.0252
     39 H          26.7260    3.1750  133.1160 H       1  UNL1        0.0594
     40 H          27.6550    0.3220  133.6290 H       1  UNL1        0.0252
     41 H          26.0830    0.9590  134.1630 H       1  UNL1        0.0252
     42 H          29.5640    3.6510  126.0960 H       1  UNL1        0.0314
     43 H          28.0310    2.7130  129.4670 H       1  UNL1        0.0616
     44 H          27.7150    4.7140  128.2860 H       1  UNL1        0.0292
     45 H          31.4180    3.9620  127.5390 H       1  UNL1        0.0467
     46 H          29.0210    6.4920  127.1230 H       1  UNL1        0.0233
     47 H          30.1590    6.0520  125.8390 H       1  UNL1        0.0233
     48 H          27.3070    3.5820  126.9820 H       1  UNL1        0.0292
     49 H          30.5710    5.1510  128.5550 H       1  UNL1        0.0467
     50 H          28.4190    5.8010  125.6080 H       1  UNL1        0.0233
     51 C          30.8210   -4.7240  126.4510 C.2     1  UNL1        0.2375
     52 C          32.2160   -4.4310  126.0410 C.2     1  UNL1        0.0001
     53 C          32.5560   -4.4720  124.7450 C.2     1  UNL1       -0.0569
     54 C          33.8930   -4.1760  124.2780 C.2     1  UNL1       -0.0616
     55 C          34.2260   -4.1790  122.9790 C.2     1  UNL1       -0.0621
     56 C          35.5580   -3.8700  122.5120 C.2     1  UNL1       -0.0659
     57 C          35.8880   -3.8500  121.2130 C.2     1  UNL1       -0.0871
     58 C          37.2580   -3.5270  120.7090 C.3     1  UNL1       -0.0465
     59 O          29.9630   -5.1130  125.6710 O.2     1  UNL1       -0.2708
     60 N          30.6010   -4.4920  127.7830 N.am    1  UNL1       -0.3002
     61 C          29.2560   -4.5160  128.3540 C.3     1  UNL1        0.1036
     62 C          28.8490   -3.0450  128.5400 C.2     1  UNL1        0.2344
     63 O          29.6210   -2.2060  129.0010 O.2     1  UNL1       -0.2738
     64 C          29.2500   -5.2290  129.7140 C.3     1  UNL1       -0.0006
     65 C          27.8750   -5.3050  130.3370 C.ar    1  UNL1       -0.0451
     66 C          27.4750   -4.3560  131.2890 C.ar    1  UNL1       -0.0585
     67 C          26.9640   -6.2880  129.9320 C.ar    1  UNL1       -0.0585
     68 C          26.1860   -4.3860  131.8210 C.ar    1  UNL1       -0.0615
     69 C          25.6760   -6.3190  130.4700 C.ar    1  UNL1       -0.0615
     70 C          25.2870   -5.3680  131.4120 C.ar    1  UNL1       -0.0617
     71 N          27.5450   -2.7590  128.2320 N.am    1  UNL1       -0.2997
     72 C          26.9100   -1.4860  128.5820 C.3     1  UNL1        0.1340
     73 C          25.4350   -1.8470  128.8390 C.2     1  UNL1        0.2399
     74 O          24.9510   -2.8460  128.2870 O.2     1  UNL1       -0.2734
     75 C          27.0600   -0.4360  127.4810 C.3     1  UNL1        0.1193
     76 O          27.3290    0.8490  128.0920 O.3     1  UNL1       -0.4610
     77 N          24.6650   -1.0830  129.6860 N.am    1  UNL1       -0.2883
     78 C          24.8390    0.3250  130.0930 C.3     1  UNL1        0.1025
     79 C          25.9420    0.5980  131.1530 C.2     1  UNL1        0.2365
     80 O          26.6690   -0.3130  131.5540 O.2     1  UNL1       -0.2735
     81 C          23.4470    0.7040  130.6360 C.3     1  UNL1       -0.0243
     82 C          22.8790   -0.6170  131.1350 C.3     1  UNL1       -0.0350
     83 C          23.3650   -1.5920  130.0860 C.3     1  UNL1        0.0156
     84 N          26.1300    1.9070  131.5940 N.am    1  UNL1       -0.2917
     85 C          25.5140    3.0800  130.9770 C.3     1  UNL1        0.0040
     86 C          27.0770    2.2230  132.6940 C.3     1  UNL1        0.0991
     87 C          27.0980    1.2350  133.8590 C.3     1  UNL1       -0.0379
     88 C          28.5040    2.4920  132.1780 C.2     1  UNL1        0.2339
     89 O          29.1560    3.4490  132.5910 O.2     1  UNL1       -0.2738
     90 N          29.0280    1.5610  131.3070 N.am    1  UNL1       -0.3027
     91 C          30.4250    1.6510  130.8930 C.3     1  UNL1        0.0968
     92 C          30.8140    2.8030  129.9260 C.2     1  UNL1        0.2363
     93 O          31.9600    3.2690  129.9980 O.2     1  UNL1       -0.2736
     94 C          30.9030    0.3370  130.2930 C.3     1  UNL1       -0.0381
     95 C          28.5300    1.4380  127.8080 C.2     1  UNL1        0.3279
     96 N          29.9940    3.1840  128.8810 N.am    1  UNL1       -0.2862
     97 O          29.3550    1.0120  127.0140 O.2     1  UNL1       -0.2487
     98 C          28.6270    2.7730  128.5600 C.3     1  UNL1        0.1233
     99 C          28.1040    3.8980  127.6630 C.3     1  UNL1       -0.0199
    100 C          30.4480    4.2300  127.9730 C.3     1  UNL1        0.0182
    101 C          29.2320    5.7560  126.3400 C.3     1  UNL1       -0.0609
    102 C          29.3570    4.3550  126.9130 C.3     1  UNL1       -0.0258
@<TRIPOS>BOND
     1    36    58    1
     2    37    58    1
     3     6    57    1
     4    58    57    1
     5    58    35    1
     6    57    56    2
     7     4    55    1
     8    56    55    1
     9    56     5    1
    10    55    54    2
    11     2    53    1
    12    54    53    1
    13    54     3    1
    14    53    52    2
    15    50   101    1
    16    59    51    2
    17    47   101    1
    18    52    51    1
    19    52     1    1
    20    42   102    1
    21   101   102    1
    22   101    46    1
    23    51    60   am
    24    22    75    1
    25    19    75    1
    26   102    99    1
    27   102   100    1
    28    48    99    1
    29    97    95    2
    30    75    76    1
    31    75    72    1
    32    45   100    1
    33    12    61    1
    34    99    44    1
    35    99    98    1
    36    60    11    1
    37    60    61    1
    38    95    76    1
    39    95    98    1
    40    20    71    1
    41   100    49    1
    42   100    96    1
    43    71    62   am
    44    71    72    1
    45    74    73    2
    46    61    62    1
    47    61    64    1
    48    62    63    2
    49    98    96    1
    50    98    43    1
    51    72    73    1
    52    72    21    1
    53    73    77   am
    54    96    92   am
    55    15    67    1
    56    24    78    1
    57    27    83    1
    58    30    94    1
    59    18    64    1
    60    77    83    1
    61    77    78    1
    62    64    65    1
    63    64    13    1
    64    25    81    1
    65    92    93    2
    66    92    91    1
    67    67    65   ar
    68    67    69   ar
    69     7    85    1
    70    34    94    1
    71    83    23    1
    72    83    82    1
    73    78    81    1
    74    78    79    1
    75    17    69    1
    76    94    91    1
    77    94    33    1
    78    65    66   ar
    79    69    70   ar
    80    81    82    1
    81    81    28    1
    82     8    85    1
    83    91    90    1
    84    91    32    1
    85    85    84    1
    86    85     9    1
    87    82    26    1
    88    82    29    1
    89    79    80    2
    90    79    84   am
    91    31    90    1
    92    66    14    1
    93    66    68   ar
    94    90    88   am
    95    70    68   ar
    96    70    10    1
    97    84    86    1
    98    68    16    1
    99    88    89    2
   100    88    86    1
   101    86    39    1
   102    86    87    1
   103    40    87    1
   104    87    41    1
   105    87    38    1
