@<TRIPOS>MOLECULE
139.31035
 102 105 0 0 0
SMALL
GASTEIGER

@<TRIPOS>ATOM
      1 H          33.0540    3.0900  113.8960 H       1  UNL1        0.0669
      2 H          35.3120    2.7150  115.9580 H       1  UNL1        0.0619
      3 H          35.1000    2.0980  112.9070 H       1  UNL1        0.0618
      4 H          37.3290    1.7020  114.9880 H       1  UNL1        0.0617
      5 H          37.1040    1.0710  111.9440 H       1  UNL1        0.0614
      6 H          39.3330    0.6680  114.0210 H       1  UNL1        0.0569
      7 H          24.2080    0.8200  124.5110 H       1  UNL1        0.0429
      8 H          25.8550    0.7510  125.1740 H       1  UNL1        0.0429
      9 H          25.0990   -0.7060  124.4630 H       1  UNL1        0.0429
     10 H          26.3360    6.7630  120.4500 H       1  UNL1        0.0618
     11 H          31.1250    3.6200  114.8680 H       1  UNL1        0.1498
     12 H          31.1110    4.4960  117.7270 H       1  UNL1        0.0598
     13 H          29.0100    5.0100  115.5270 H       1  UNL1        0.0336
     14 H          26.9090    4.8550  116.6510 H       1  UNL1        0.0620
     15 H          30.2220    6.7980  118.6340 H       1  UNL1        0.0620
     16 H          25.4320    5.4960  118.5210 H       1  UNL1        0.0618
     17 H          28.7250    7.4160  120.4960 H       1  UNL1        0.0618
     18 H          30.1740    6.2040  116.0540 H       1  UNL1        0.0336
     19 H          29.6820    0.5120  120.3500 H       1  UNL1        0.0721
     20 H          29.4680    3.5060  119.0700 H       1  UNL1        0.1496
     21 H          27.9500    1.2740  117.9630 H       1  UNL1        0.0629
     22 H          30.4380    0.5170  118.7370 H       1  UNL1        0.0721
     23 H          26.2140   -0.2000  118.9680 H       1  UNL1        0.0465
     24 H          25.6270    3.2970  120.9450 H       1  UNL1        0.0597
     25 H          23.8410    2.7310  119.6090 H       1  UNL1        0.0288
     26 H          23.5640    0.4770  118.7770 H       1  UNL1        0.0281
     27 H          25.7250    1.2840  118.1150 H       1  UNL1        0.0465
     28 H          23.2360    1.8740  121.0360 H       1  UNL1        0.0288
     29 H          24.1960   -0.2140  120.2770 H       1  UNL1        0.0281
     30 H          25.0420   -4.0870  121.3060 H       1  UNL1        0.0252
     31 H          28.2270   -1.8350  121.2900 H       1  UNL1        0.1495
     32 H          28.0040   -3.9720  120.6070 H       1  UNL1        0.0592
     33 H          26.3670   -4.5550  122.3880 H       1  UNL1        0.0252
     34 H          26.1060   -5.4060  120.8540 H       1  UNL1        0.0252
     35 H          39.0700    0.0330  110.9910 H       1  UNL1        0.0272
     36 H          39.9040   -0.9870  112.1760 H       1  UNL1        0.0272
     37 H          40.5470    0.6190  111.7790 H       1  UNL1        0.0272
     38 H          28.7960   -0.9150  123.2410 H       1  UNL1        0.0252
     39 H          27.4020    0.3920  121.8080 H       1  UNL1        0.0594
     40 H          27.5140   -1.1230  124.4310 H       1  UNL1        0.0252
     41 H          28.2340    0.4790  124.1690 H       1  UNL1        0.0252
     42 H          28.7340   -1.4460  116.1550 H       1  UNL1        0.0314
     43 H          29.2610   -3.9680  118.9790 H       1  UNL1        0.0616
     44 H          29.4110   -4.3890  116.6470 H       1  UNL1        0.0292
     45 H          26.4830   -1.8990  116.7680 H       1  UNL1        0.0467
     46 H          28.1790   -3.9790  114.5120 H       1  UNL1        0.0233
     47 H          27.6740   -2.3350  114.0870 H       1  UNL1        0.0233
     48 H          30.5120   -3.0000  116.7320 H       1  UNL1        0.0292
     49 H          26.6350   -3.6450  116.4610 H       1  UNL1        0.0467
     50 H          29.3970   -2.7460  114.1460 H       1  UNL1        0.0233
     51 C          32.8320    3.6350  116.0280 C.2     1  UNL1        0.2375
     52 C          33.5670    3.1160  114.8490 C.2     1  UNL1        0.0001
     53 C          34.8280    2.6790  114.9830 C.2     1  UNL1       -0.0569
     54 C          35.5880    2.1340  113.8790 C.2     1  UNL1       -0.0616
     55 C          36.8390    1.6710  114.0170 C.2     1  UNL1       -0.0621
     56 C          37.5900    1.1090  112.9170 C.2     1  UNL1       -0.0659
     57 C          38.8380    0.6360  113.0530 C.2     1  UNL1       -0.0871
     58 C          39.6280    0.0430  111.9320 C.3     1  UNL1       -0.0465
     59 O          33.3470    3.7730  117.1290 O.2     1  UNL1       -0.2708
     60 N          31.5170    3.9090  115.7550 N.am    1  UNL1       -0.3002
     61 C          30.5630    4.2140  116.8210 C.3     1  UNL1        0.1036
     62 C          29.7940    2.9070  117.1000 C.2     1  UNL1        0.2344
     63 O          29.5660    2.0710  116.2240 O.2     1  UNL1       -0.2738
     64 C          29.6010    5.3320  116.3950 C.3     1  UNL1       -0.0006
     65 C          28.6770    5.7760  117.5050 C.ar    1  UNL1       -0.0451
     66 C          27.3210    5.4210  117.4840 C.ar    1  UNL1       -0.0585
     67 C          29.1740    6.5050  118.5940 C.ar    1  UNL1       -0.0585
     68 C          26.4810    5.7780  118.5400 C.ar    1  UNL1       -0.0615
     69 C          28.3320    6.8580  119.6490 C.ar    1  UNL1       -0.0615
     70 C          26.9880    6.4920  119.6230 C.ar    1  UNL1       -0.0617
     71 N          29.3320    2.7640  118.3850 N.am    1  UNL1       -0.2997
     72 C          28.5620    1.5970  118.8090 C.3     1  UNL1        0.1340
     73 C          27.6810    2.0620  119.9800 C.2     1  UNL1        0.2399
     74 O          28.1450    2.8170  120.8410 O.2     1  UNL1       -0.2734
     75 C          29.4820    0.4620  119.2740 C.3     1  UNL1        0.1193
     76 O          28.8510   -0.8000  118.9870 O.3     1  UNL1       -0.4610
     77 N          26.3870    1.5910  120.0620 N.am    1  UNL1       -0.2883
     78 C          25.4370    2.2150  120.9840 C.3     1  UNL1        0.1025
     79 C          25.3290    1.9080  122.5060 C.2     1  UNL1        0.2365
     80 O          24.6480    2.7000  123.1800 O.2     1  UNL1       -0.2735
     81 C          24.0700    1.9370  120.3310 C.3     1  UNL1       -0.0243
     82 C          24.2840    0.6280  119.5850 C.3     1  UNL1       -0.0350
     83 C          25.7060    0.7600  119.0770 C.3     1  UNL1        0.0156
     84 N          25.7820    0.7340  123.0880 N.am    1  UNL1       -0.2917
     85 C          25.2010    0.3790  124.3800 C.3     1  UNL1        0.0040
     86 C          26.8640   -0.1330  122.5880 C.3     1  UNL1        0.0991
     87 C          27.9080   -0.4400  123.6700 C.3     1  UNL1       -0.0379
     88 C          26.3220   -1.4440  121.9620 C.2     1  UNL1        0.2339
     89 O          25.1440   -1.7760  122.0290 O.2     1  UNL1       -0.2738
     90 N          27.2900   -2.2110  121.3410 N.am    1  UNL1       -0.3027
     91 C          27.0360   -3.4660  120.6290 C.3     1  UNL1        0.0968
     92 C          26.5730   -3.1790  119.1790 C.2     1  UNL1        0.2363
     93 O          25.3840   -3.0210  118.8960 O.2     1  UNL1       -0.2736
     94 C          26.0820   -4.4240  121.3390 C.3     1  UNL1       -0.0381
     95 C          29.6910   -1.8700  118.9280 C.2     1  UNL1        0.3279
     96 N          27.5460   -3.0040  118.2090 N.am    1  UNL1       -0.2862
     97 O          30.8710   -1.8420  119.2540 O.2     1  UNL1       -0.2487
     98 C          29.0040   -3.1150  118.3460 C.3     1  UNL1        0.1233
     99 C          29.4810   -3.3250  116.9070 C.3     1  UNL1       -0.0199
    100 C          27.1620   -2.7560  116.8270 C.3     1  UNL1        0.0182
    101 C          28.4280   -2.9180  114.6250 C.3     1  UNL1       -0.0609
    102 C          28.4750   -2.5110  116.0870 C.3     1  UNL1       -0.0258
@<TRIPOS>BOND
     1    35    58    1
     2    37    58    1
     3    58    36    1
     4    58    57    1
     5     5    56    1
     6     3    54    1
     7    56    57    2
     8    56    55    1
     9    57     6    1
    10    54    55    2
    11    54    53    1
    12     1    52    1
    13    55     4    1
    14    47   101    1
    15    50   101    1
    16    46   101    1
    17   101   102    1
    18    52    53    2
    19    52    51    1
    20    11    60    1
    21    53     2    1
    22    13    64    1
    23    60    51   am
    24    60    61    1
    25    51    59    2
    26    18    64    1
    27   102    42    1
    28   102   100    1
    29   102    99    1
    30    63    62    2
    31    64    61    1
    32    64    65    1
    33    49   100    1
    34    44    99    1
    35    14    66    1
    36    48    99    1
    37    45   100    1
    38    61    62    1
    39    61    12    1
    40   100    96    1
    41    99    98    1
    42    62    71   am
    43    66    65   ar
    44    66    68   ar
    45    65    67   ar
    46    21    72    1
    47    27    83    1
    48    96    98    1
    49    96    92   am
    50    98    95    1
    51    98    43    1
    52    71    72    1
    53    71    20    1
    54    16    68    1
    55    68    70   ar
    56    67    15    1
    57    67    69   ar
    58    22    75    1
    59    26    82    1
    60    72    75    1
    61    72    73    1
    62    93    92    2
    63    95    76    1
    64    95    97    2
    65    23    83    1
    66    76    75    1
    67    83    82    1
    68    83    77    1
    69    92    91    1
    70    75    19    1
    71    82    29    1
    72    82    81    1
    73    25    81    1
    74    70    69   ar
    75    70    10    1
    76    69    17    1
    77    73    77   am
    78    73    74    2
    79    77    78    1
    80    81    78    1
    81    81    28    1
    82    32    91    1
    83    91    94    1
    84    91    90    1
    85    34    94    1
    86    24    78    1
    87    78    79    1
    88    31    90    1
    89    30    94    1
    90    94    33    1
    91    90    88   am
    92    39    86    1
    93    88    89    2
    94    88    86    1
    95    79    84   am
    96    79    80    2
    97    86    84    1
    98    86    87    1
    99    84    85    1
   100    38    87    1
   101    87    41    1
   102    87    40    1
   103    85     9    1
   104    85     7    1
   105    85     8    1
