@<TRIPOS>MOLECULE
127.70063
 102 105 0 0 0
SMALL
GASTEIGER

@<TRIPOS>ATOM
      1 H          34.5030    2.1810  124.7320 H       1  UNL1        0.0669
      2 H          32.0360    4.0270  124.8440 H       1  UNL1        0.0619
      3 H          34.2290    3.3410  126.9500 H       1  UNL1        0.0618
      4 H          31.7140    5.1130  126.9930 H       1  UNL1        0.0617
      5 H          33.8960    4.4620  129.1200 H       1  UNL1        0.0614
      6 H          31.3680    6.2120  129.1470 H       1  UNL1        0.0569
      7 H          24.2890   -1.6890  120.5030 H       1  UNL1        0.0429
      8 H          23.7450   -0.0240  120.3090 H       1  UNL1        0.0429
      9 H          24.6850   -0.4980  121.7530 H       1  UNL1        0.0429
     10 H          37.7450    6.2060  120.1460 H       1  UNL1        0.0618
     11 H          34.8960    1.5440  122.5940 H       1  UNL1        0.1498
     12 H          33.0760    2.3640  120.4390 H       1  UNL1        0.0598
     13 H          34.8160    1.3040  118.9350 H       1  UNL1        0.0336
     14 H          34.3580    3.9280  118.8280 H       1  UNL1        0.0620
     15 H          37.4320    2.0650  121.2200 H       1  UNL1        0.0620
     16 H          35.5980    6.0580  118.9130 H       1  UNL1        0.0618
     17 H          38.6550    4.2060  121.2950 H       1  UNL1        0.0618
     18 H          35.6770    0.7200  120.3430 H       1  UNL1        0.0336
     19 H          31.0240   -2.1400  122.9560 H       1  UNL1        0.0721
     20 H          31.4880    0.9720  121.8500 H       1  UNL1        0.1496
     21 H          31.3440   -1.7530  120.6530 H       1  UNL1        0.0629
     22 H          29.4070   -2.1420  122.2770 H       1  UNL1        0.0721
     23 H          29.4820   -3.3200  119.9920 H       1  UNL1        0.0465
     24 H          27.9180    0.0680  118.3150 H       1  UNL1        0.0597
     25 H          28.7350   -1.4280  116.7070 H       1  UNL1        0.0288
     26 H          29.2170   -3.7160  117.2270 H       1  UNL1        0.0281
     27 H          30.5650   -2.5770  118.7870 H       1  UNL1        0.0465
     28 H          27.0940   -2.0750  116.8800 H       1  UNL1        0.0288
     29 H          27.8730   -3.8340  118.3600 H       1  UNL1        0.0281
     30 H          27.8900    4.4790  123.6920 H       1  UNL1        0.0252
     31 H          27.4520    3.1100  121.4450 H       1  UNL1        0.1495
     32 H          29.3230    1.8800  122.9160 H       1  UNL1        0.0592
     33 H          29.2670    4.3300  122.5930 H       1  UNL1        0.0252
     34 H          29.4640    3.9820  124.3210 H       1  UNL1        0.0252
     35 H          33.5540    5.5580  131.2540 H       1  UNL1        0.0272
     36 H          31.8270    5.7520  131.6070 H       1  UNL1        0.0272
     37 H          32.7810    7.1400  131.0480 H       1  UNL1        0.0272
     38 H          25.6640    3.1740  120.2140 H       1  UNL1        0.0252
     39 H          27.0680    1.3610  119.5270 H       1  UNL1        0.0594
     40 H          24.5530    2.1080  121.0700 H       1  UNL1        0.0252
     41 H          24.6400    2.0690  119.2960 H       1  UNL1        0.0252
     42 H          29.3540   -1.2320  126.7280 H       1  UNL1        0.0314
     43 H          30.5210    1.9520  125.0120 H       1  UNL1        0.0616
     44 H          30.5090    1.5350  127.3470 H       1  UNL1        0.0292
     45 H          27.2640   -0.1760  126.2680 H       1  UNL1        0.0467
     46 H          29.0480    0.6070  129.1680 H       1  UNL1        0.0233
     47 H          28.2520   -0.9590  128.9430 H       1  UNL1        0.0233
     48 H          31.4050    0.0890  126.8520 H       1  UNL1        0.0292
     49 H          27.6900    1.2940  127.1750 H       1  UNL1        0.0467
     50 H          30.0160   -0.8740  129.0960 H       1  UNL1        0.0233
     51 C          33.0860    2.4260  123.0500 C.2     1  UNL1        0.2375
     52 C          33.6050    2.6920  124.4130 C.2     1  UNL1        0.0001
     53 C          32.9330    3.5300  125.2150 C.2     1  UNL1       -0.0569
     54 C          33.3260    3.8190  126.5750 C.2     1  UNL1       -0.0616
     55 C          32.6180    4.6360  127.3690 C.2     1  UNL1       -0.0621
     56 C          32.9920    4.9280  128.7340 C.2     1  UNL1       -0.0659
     57 C          32.2730    5.7400  129.5230 C.2     1  UNL1       -0.0871
     58 C          32.6350    6.0610  130.9370 C.3     1  UNL1       -0.0465
     59 O          31.9380    2.6980  122.7150 O.2     1  UNL1       -0.2708
     60 N          33.9930    1.8160  122.2300 N.am    1  UNL1       -0.3002
     61 C          33.7300    1.5620  120.8070 C.3     1  UNL1        0.1036
     62 C          32.9500    0.2410  120.6070 C.2     1  UNL1        0.2344
     63 O          33.2540   -0.5960  119.7580 O.2     1  UNL1       -0.2738
     64 C          35.0320    1.5350  119.9870 C.3     1  UNL1       -0.0006
     65 C          35.7960    2.8400  120.0290 C.ar    1  UNL1       -0.0451
     66 C          35.2950    3.9760  119.3780 C.ar    1  UNL1       -0.0585
     67 C          37.0130    2.9330  120.7180 C.ar    1  UNL1       -0.0585
     68 C          35.9940    5.1830  119.4220 C.ar    1  UNL1       -0.0615
     69 C          37.7100    4.1420  120.7610 C.ar    1  UNL1       -0.0615
     70 C          37.2000    5.2660  120.1140 C.ar    1  UNL1       -0.0617
     71 N          31.7990    0.1400  121.3520 N.am    1  UNL1       -0.2997
     72 C          30.8300   -0.9330  121.1630 C.3     1  UNL1        0.1340
     73 C          29.7100   -0.4150  120.2280 C.2     1  UNL1        0.2399
     74 O          29.4370    0.7890  120.1640 O.2     1  UNL1       -0.2734
     75 C          30.2720   -1.5000  122.4780 C.3     1  UNL1        0.1193
     76 O          29.8260   -0.4960  123.4100 O.3     1  UNL1       -0.4610
     77 N          29.0280   -1.3400  119.4600 N.am    1  UNL1       -0.2883
     78 C          27.8690   -0.9710  118.6390 C.3     1  UNL1        0.1025
     79 C          26.5180   -1.2780  119.3570 C.2     1  UNL1        0.2365
     80 O          26.1010   -2.4440  119.3770 O.2     1  UNL1       -0.2735
     81 C          28.0300   -1.8840  117.4130 C.3     1  UNL1       -0.0243
     82 C          28.6470   -3.1600  117.9780 C.3     1  UNL1       -0.0350
     83 C          29.5250   -2.6650  119.1170 C.3     1  UNL1        0.0156
     84 N          25.8000   -0.2640  119.9910 N.am    1  UNL1       -0.2917
     85 C          24.5650   -0.6460  120.6760 C.3     1  UNL1        0.0040
     86 C          26.3230    1.0960  120.2760 C.3     1  UNL1        0.0991
     87 C          25.2320    2.1680  120.2120 C.3     1  UNL1       -0.0379
     88 C          27.0500    1.0930  121.6490 C.2     1  UNL1        0.2339
     89 O          27.2750    0.0560  122.2730 O.2     1  UNL1       -0.2738
     90 N          27.5010    2.3270  122.0800 N.am    1  UNL1       -0.3027
     91 C          28.4250    2.4260  123.2060 C.3     1  UNL1        0.0968
     92 C          27.8090    1.8320  124.4940 C.2     1  UNL1        0.2363
     93 O          26.6260    2.0400  124.7880 O.2     1  UNL1       -0.2736
     94 C          28.7840    3.8850  123.4700 C.3     1  UNL1       -0.0381
     95 C          30.7160   -0.0580  124.3350 C.2     1  UNL1        0.3279
     96 N          28.6350    1.1130  125.3370 N.am    1  UNL1       -0.2862
     97 O          31.8970   -0.3900  124.3750 O.2     1  UNL1       -0.2487
     98 C          30.1010    0.9840  125.2930 C.3     1  UNL1        0.1233
     99 C          30.4550    0.6220  126.7400 C.3     1  UNL1       -0.0199
    100 C          28.0850    0.4980  126.5330 C.3     1  UNL1        0.0182
    101 C          29.1370   -0.3700  128.6810 C.3     1  UNL1       -0.0609
    102 C          29.2610   -0.2330  127.1750 C.3     1  UNL1       -0.0258
@<TRIPOS>BOND
     1    25    81    1
     2    28    81    1
     3    26    82    1
     4    81    82    1
     5    81    78    1
     6    82    29    1
     7    82    83    1
     8    24    78    1
     9    78    79    1
    10    78    77    1
    11    27    83    1
    12    14    66    1
    13    16    68    1
    14    13    64    1
    15    83    77    1
    16    83    23    1
    17    41    87    1
    18    79    80    2
    19    79    84   am
    20    66    68   ar
    21    66    65   ar
    22    68    70   ar
    23    77    73   am
    24    39    86    1
    25    63    62    2
    26    64    65    1
    27    64    18    1
    28    64    61    1
    29    84    86    1
    30    84    85    1
    31    65    67   ar
    32    70    10    1
    33    70    69   ar
    34    74    73    2
    35    87    38    1
    36    87    86    1
    37    87    40    1
    38    73    72    1
    39    86    88    1
    40     8    85    1
    41    12    61    1
    42     7    85    1
    43    62    61    1
    44    62    71   am
    45    21    72    1
    46    85     9    1
    47    67    69   ar
    48    67    15    1
    49    69    17    1
    50    61    60    1
    51    72    71    1
    52    72    75    1
    53    71    20    1
    54    31    90    1
    55    88    90   am
    56    88    89    2
    57    90    91    1
    58    60    11    1
    59    60    51   am
    60    22    75    1
    61    75    19    1
    62    75    76    1
    63    33    94    1
    64    59    51    2
    65    32    91    1
    66    51    52    1
    67    91    94    1
    68    91    92    1
    69    76    95    1
    70    94    30    1
    71    94    34    1
    72    95    97    2
    73    95    98    1
    74    52     1    1
    75    52    53    2
    76    92    93    2
    77    92    96   am
    78     2    53    1
    79    43    98    1
    80    53    54    1
    81    98    96    1
    82    98    99    1
    83    96   100    1
    84    45   100    1
    85   100   102    1
    86   100    49    1
    87    54     3    1
    88    54    55    2
    89    42   102    1
    90    99    48    1
    91    99   102    1
    92    99    44    1
    93     4    55    1
    94   102   101    1
    95    55    56    1
    96   101    47    1
    97   101    50    1
    98   101    46    1
    99    56     5    1
   100    56    57    2
   101     6    57    1
   102    57    58    1
   103    58    37    1
   104    58    35    1
   105    58    36    1
