@<TRIPOS>MOLECULE
157.90478
 102 105 0 0 0
SMALL
GASTEIGER

@<TRIPOS>ATOM
      1 H          35.0450    6.2440  120.1460 H       1  UNL1        0.0669
      2 H          35.2840    3.8610  122.0860 H       1  UNL1        0.0619
      3 H          37.1740    5.0040  119.8830 H       1  UNL1        0.0618
      4 H          37.3690    2.5910  121.7790 H       1  UNL1        0.0617
      5 H          39.2460    3.7440  119.5740 H       1  UNL1        0.0614
      6 H          39.4400    1.3130  121.4460 H       1  UNL1        0.0569
      7 H          25.0560    0.4200  125.2050 H       1  UNL1        0.0429
      8 H          26.2080   -0.8810  125.0510 H       1  UNL1        0.0429
      9 H          24.6530   -0.9710  124.1850 H       1  UNL1        0.0429
     10 H          25.7050    8.8710  122.8570 H       1  UNL1        0.0618
     11 H          32.9460    7.0140  120.0690 H       1  UNL1        0.1498
     12 H          31.1370    6.5550  122.3940 H       1  UNL1        0.0598
     13 H          30.7640    8.3740  119.9250 H       1  UNL1        0.0336
     14 H          28.3780    8.0750  119.5970 H       1  UNL1        0.0620
     15 H          29.9350    8.7790  123.5640 H       1  UNL1        0.0620
     16 H          26.0850    8.3780  120.4570 H       1  UNL1        0.0618
     17 H          27.6320    9.0720  124.4020 H       1  UNL1        0.0618
     18 H          31.3910    8.9400  121.4550 H       1  UNL1        0.0336
     19 H          30.9230    2.8740  119.9110 H       1  UNL1        0.0721
     20 H          29.5000    5.0640  122.1880 H       1  UNL1        0.1496
     21 H          28.7020    3.9950  119.5940 H       1  UNL1        0.0629
     22 H          29.6010    1.6970  120.0900 H       1  UNL1        0.0721
     23 H          27.4940    2.0110  118.9740 H       1  UNL1        0.0465
     24 H          25.2680    3.3450  121.9090 H       1  UNL1        0.0597
     25 H          23.8470    2.5120  120.4280 H       1  UNL1        0.0288
     26 H          24.8360    1.6220  118.4750 H       1  UNL1        0.0281
     27 H          26.3700    3.3850  119.0690 H       1  UNL1        0.0465
     28 H          24.0850    0.8640  121.0070 H       1  UNL1        0.0288
     29 H          25.7390    0.4190  119.3920 H       1  UNL1        0.0281
     30 H          29.0720   -1.4140  126.4470 H       1  UNL1        0.0252
     31 H          28.5430   -2.8730  124.2550 H       1  UNL1        0.1495
     32 H          29.0680    0.0110  123.7440 H       1  UNL1        0.0592
     33 H          28.0430   -0.0570  125.9740 H       1  UNL1        0.0252
     34 H          29.7840    0.1780  126.1570 H       1  UNL1        0.0252
     35 H          41.2830    2.4860  119.2370 H       1  UNL1        0.0272
     36 H          41.0320    0.7580  119.5400 H       1  UNL1        0.0272
     37 H          41.8500    1.7620  120.7530 H       1  UNL1        0.0272
     38 H          27.5650    0.1140  120.5290 H       1  UNL1        0.0252
     39 H          25.9460   -0.9710  121.6760 H       1  UNL1        0.0594
     40 H          28.6760   -0.8780  121.3990 H       1  UNL1        0.0252
     41 H          28.3380    0.7540  121.9870 H       1  UNL1        0.0252
     42 H          33.9330    0.1940  122.2370 H       1  UNL1        0.0314
     43 H          30.8140    1.3830  124.1350 H       1  UNL1        0.0616
     44 H          33.1000    1.6950  124.7660 H       1  UNL1        0.0292
     45 H          33.1720   -1.8320  123.1870 H       1  UNL1        0.0467
     46 H          35.2160    0.3940  125.0170 H       1  UNL1        0.0233
     47 H          35.8410   -0.5400  123.6480 H       1  UNL1        0.0233
     48 H          33.1900    2.3240  123.1080 H       1  UNL1        0.0292
     49 H          33.3280   -1.2410  124.8560 H       1  UNL1        0.0467
     50 H          35.7660    1.2290  123.5560 H       1  UNL1        0.0233
     51 C          33.4570    5.7110  121.5900 C.2     1  UNL1        0.2375
     52 C          34.7750    5.5480  120.9310 C.2     1  UNL1        0.0001
     53 C          35.5890    4.5470  121.2960 C.2     1  UNL1       -0.0569
     54 C          36.8700    4.3130  120.6670 C.2     1  UNL1       -0.0616
     55 C          37.6690    3.2890  121.0000 C.2     1  UNL1       -0.0621
     56 C          38.9400    3.0490  120.3540 C.2     1  UNL1       -0.0659
     57 C          39.7350    2.0160  120.6710 C.2     1  UNL1       -0.0871
     58 C          41.0480    1.7470  120.0090 C.3     1  UNL1       -0.0465
     59 O          33.1090    5.0510  122.5610 O.2     1  UNL1       -0.2708
     60 N          32.6610    6.6380  120.9650 N.am    1  UNL1       -0.3002
     61 C          31.2500    6.7810  121.3270 C.3     1  UNL1        0.1036
     62 C          30.5050    5.7300  120.4870 C.2     1  UNL1        0.2344
     63 O          30.6930    5.5950  119.2770 O.2     1  UNL1       -0.2738
     64 C          30.7300    8.1860  121.0060 C.3     1  UNL1       -0.0006
     65 C          29.3270    8.4110  121.5170 C.ar    1  UNL1       -0.0451
     66 C          28.2300    8.3000  120.6510 C.ar    1  UNL1       -0.0585
     67 C          29.1010    8.6910  122.8710 C.ar    1  UNL1       -0.0585
     68 C          26.9310    8.4670  121.1330 C.ar    1  UNL1       -0.0615
     69 C          27.8010    8.8570  123.3500 C.ar    1  UNL1       -0.0615
     70 C          26.7170    8.7440  122.4810 C.ar    1  UNL1       -0.0617
     71 N          29.6500    4.9230  121.1910 N.am    1  UNL1       -0.2997
     72 C          29.0450    3.7330  120.6000 C.3     1  UNL1        0.1340
     73 C          27.8500    3.3170  121.4790 C.2     1  UNL1        0.2399
     74 O          27.8340    3.5960  122.6820 O.2     1  UNL1       -0.2734
     75 C          30.0650    2.5870  120.5280 C.3     1  UNL1        0.1193
     76 O          30.5560    2.3010  121.8560 O.3     1  UNL1       -0.4610
     77 N          26.8410    2.5590  120.9080 N.am    1  UNL1       -0.2883
     78 C          25.6150    2.3280  121.6630 C.3     1  UNL1        0.1025
     79 C          25.5360    1.5810  123.0220 C.2     1  UNL1        0.2365
     80 O          24.7990    2.1270  123.8640 O.2     1  UNL1       -0.2735
     81 C          24.6100    1.7560  120.6500 C.3     1  UNL1       -0.0243
     82 C          25.4150    1.4650  119.3890 C.3     1  UNL1       -0.0350
     83 C          26.6080    2.3990  119.4830 C.3     1  UNL1        0.0156
     84 N          26.0440    0.3080  123.2920 N.am    1  UNL1       -0.2917
     85 C          25.4660   -0.3070  124.4990 C.3     1  UNL1        0.0040
     86 C          26.7300   -0.6460  122.3740 C.3     1  UNL1        0.0991
     87 C          27.8890   -0.1290  121.5390 C.3     1  UNL1       -0.0379
     88 C          27.2270   -1.9470  123.0740 C.2     1  UNL1        0.2339
     89 O          26.6190   -3.0090  122.9130 O.2     1  UNL1       -0.2738
     90 N          28.3020   -1.9440  123.9180 N.am    1  UNL1       -0.3027
     91 C          29.2230   -0.8800  124.3410 C.3     1  UNL1        0.0968
     92 C          30.6650   -1.4110  124.1780 C.2     1  UNL1        0.2363
     93 O          30.9150   -2.5960  124.4210 O.2     1  UNL1       -0.2736
     94 C          29.0180   -0.5240  125.8100 C.3     1  UNL1       -0.0381
     95 C          31.1370    1.0830  122.0210 C.2     1  UNL1        0.3279
     96 N          31.6660   -0.5230  123.8470 N.am    1  UNL1       -0.2862
     97 O          31.2950    0.2630  121.1270 O.2     1  UNL1       -0.2487
     98 C          31.5530    0.8980  123.4900 C.3     1  UNL1        0.1233
     99 C          32.9630    1.4380  123.7080 C.3     1  UNL1       -0.0199
    100 C          33.0560   -0.9560  123.8340 C.3     1  UNL1        0.0182
    101 C          35.2480    0.3380  123.9240 C.3     1  UNL1       -0.0609
    102 C          33.8520    0.2480  123.3300 C.3     1  UNL1       -0.0258
@<TRIPOS>BOND
     1    26    82    1
     2    23    83    1
     3    27    83    1
     4    35    58    1
     5    63    62    2
     6    82    29    1
     7    82    83    1
     8    82    81    1
     9    83    77    1
    10    36    58    1
    11     5    56    1
    12    21    72    1
    13    14    66    1
    14     3    54    1
    15    19    75    1
    16    13    64    1
    17    58    57    1
    18    58    37    1
    19    11    60    1
    20    22    75    1
    21     1    52    1
    22    56    57    2
    23    56    55    1
    24    25    81    1
    25    16    68    1
    26    62    71   am
    27    62    61    1
    28    75    72    1
    29    75    76    1
    30    38    87    1
    31    72    71    1
    32    72    73    1
    33    81    28    1
    34    81    78    1
    35    66    68   ar
    36    66    65   ar
    37    54    55    2
    38    54    53    1
    39    57     6    1
    40    77    73   am
    41    77    78    1
    42    52    53    2
    43    52    51    1
    44    60    61    1
    45    60    51   am
    46    55     4    1
    47    64    61    1
    48    64    18    1
    49    64    65    1
    50    97    95    2
    51    68    70   ar
    52    71    20    1
    53    53     2    1
    54    61    12    1
    55    40    87    1
    56    73    74    2
    57    65    67   ar
    58    87    41    1
    59    87    86    1
    60    51    59    2
    61    78    24    1
    62    78    79    1
    63    39    86    1
    64    76    95    1
    65    95    98    1
    66    42   102    1
    67    86    88    1
    68    86    84    1
    69    70    10    1
    70    70    69   ar
    71    67    69   ar
    72    67    15    1
    73    89    88    2
    74    79    84   am
    75    79    80    2
    76    88    90   am
    77    48    99    1
    78    45   100    1
    79    84    85    1
    80   102    99    1
    81   102   100    1
    82   102   101    1
    83    69    17    1
    84    98    99    1
    85    98    96    1
    86    98    43    1
    87    50   101    1
    88    47   101    1
    89    99    44    1
    90    32    91    1
    91   100    96    1
    92   100    49    1
    93    96    92   am
    94    90    31    1
    95    90    91    1
    96   101    46    1
    97    92    91    1
    98    92    93    2
    99     9    85    1
   100    91    94    1
   101    85     8    1
   102    85     7    1
   103    94    33    1
   104    94    34    1
   105    94    30    1
