@<TRIPOS>MOLECULE
123.50659
 102 105 0 0 0
SMALL
GASTEIGER

@<TRIPOS>ATOM
      1 H          28.4940    7.4970  128.8200 H       1  UNL1        0.0669
      2 H          31.4910    8.0190  128.3310 H       1  UNL1        0.0619
      3 H          29.1840    9.7650  129.5040 H       1  UNL1        0.0618
      4 H          32.1420   10.3340  128.8880 H       1  UNL1        0.0617
      5 H          29.8240   12.0520  130.0680 H       1  UNL1        0.0614
      6 H          32.7630   12.6560  129.4040 H       1  UNL1        0.0569
      7 H          22.7520   -0.9520  120.0230 H       1  UNL1        0.0429
      8 H          23.9510   -1.5570  118.8780 H       1  UNL1        0.0429
      9 H          23.3990    0.1370  118.7810 H       1  UNL1        0.0429
     10 H          29.8100   -1.8920  125.3730 H       1  UNL1        0.0618
     11 H          27.7880    5.6690  127.7400 H       1  UNL1        0.1498
     12 H          29.6350    4.0460  126.1940 H       1  UNL1        0.0598
     13 H          27.9450    2.7550  128.4290 H       1  UNL1        0.0336
     14 H          27.2590    0.6000  127.7580 H       1  UNL1        0.0620
     15 H          31.0970    2.0640  126.4190 H       1  UNL1        0.0620
     16 H          27.7010   -1.5490  126.6320 H       1  UNL1        0.0618
     17 H          31.5020   -0.0820  125.2740 H       1  UNL1        0.0618
     18 H          29.6740    2.9880  128.5640 H       1  UNL1        0.0336
     19 H          27.5930    4.5000  122.2780 H       1  UNL1        0.0721
     20 H          28.3970    2.7470  124.6170 H       1  UNL1        0.1496
     21 H          25.5340    3.5070  124.3280 H       1  UNL1        0.0629
     22 H          27.0290    5.4980  123.6360 H       1  UNL1        0.0721
     23 H          24.2210    1.5980  124.6910 H       1  UNL1        0.0465
     24 H          26.7140   -0.4170  122.1860 H       1  UNL1        0.0597
     25 H          26.5780   -1.4600  124.2690 H       1  UNL1        0.0288
     26 H          24.9190   -0.8710  125.8780 H       1  UNL1        0.0281
     27 H          25.7820    1.2830  125.4830 H       1  UNL1        0.0465
     28 H          25.1530   -2.1900  123.5140 H       1  UNL1        0.0288
     29 H          23.6720   -0.6640  124.6510 H       1  UNL1        0.0281
     30 H          22.8470    3.3210  117.8820 H       1  UNL1        0.0252
     31 H          24.0090    1.8520  120.3290 H       1  UNL1        0.1495
     32 H          25.2210    4.3400  119.5430 H       1  UNL1        0.0592
     33 H          24.4720    3.6500  117.2720 H       1  UNL1        0.0252
     34 H          23.4570    4.9810  117.8540 H       1  UNL1        0.0252
     35 H          30.4260   14.3370  130.5740 H       1  UNL1        0.0272
     36 H          31.6490   14.9450  129.4440 H       1  UNL1        0.0272
     37 H          32.1190   14.4600  131.0860 H       1  UNL1        0.0272
     38 H          27.4290   -0.2110  118.1400 H       1  UNL1        0.0252
     39 H          26.7760    0.3400  120.3830 H       1  UNL1        0.0594
     40 H          25.7710   -0.5590  117.6580 H       1  UNL1        0.0252
     41 H          26.5960   -1.6190  118.8200 H       1  UNL1        0.0252
     42 H          23.4680    7.0850  123.3070 H       1  UNL1        0.0314
     43 H          24.6240    6.5080  119.7120 H       1  UNL1        0.0616
     44 H          23.1290    8.2060  120.4810 H       1  UNL1        0.0292
     45 H          22.1030    5.2370  122.6970 H       1  UNL1        0.0467
     46 H          21.1170    8.5150  121.9450 H       1  UNL1        0.0233
     47 H          21.1330    7.8910  123.6030 H       1  UNL1        0.0233
     48 H          24.4670    8.5070  121.6070 H       1  UNL1        0.0292
     49 H          21.3640    6.0930  121.3240 H       1  UNL1        0.0467
     50 H          22.2110    9.2220  123.1460 H       1  UNL1        0.0233
     51 C          29.8370    5.9840  127.9340 C.2     1  UNL1        0.2375
     52 C          29.5180    7.3050  128.5250 C.2     1  UNL1        0.0001
     53 C          30.4720    8.2380  128.6500 C.2     1  UNL1       -0.0569
     54 C          30.2000    9.5610  129.1690 C.2     1  UNL1       -0.0616
     55 C          31.1270   10.5280  129.2290 C.2     1  UNL1       -0.0621
     56 C          30.8360   11.8560  129.7200 C.2     1  UNL1       -0.0659
     57 C          31.7490   12.8380  129.7520 C.2     1  UNL1       -0.0871
     58 C          31.4630   14.2210  130.2430 C.3     1  UNL1       -0.0465
     59 O          30.9770    5.5880  127.7400 O.2     1  UNL1       -0.2708
     60 N          28.7150    5.2790  127.5960 N.am    1  UNL1       -0.3002
     61 C          28.7750    4.0090  126.8730 C.3     1  UNL1        0.1036
     62 C          27.4850    3.9670  126.0360 C.2     1  UNL1        0.2344
     63 O          26.4590    4.5490  126.3930 O.2     1  UNL1       -0.2738
     64 C          28.8680    2.8220  127.8370 C.3     1  UNL1       -0.0006
     65 C          29.1330    1.5030  127.1490 C.ar    1  UNL1       -0.0451
     66 C          28.1890    0.4690  127.2090 C.ar    1  UNL1       -0.0585
     67 C          30.3320    1.2900  126.4540 C.ar    1  UNL1       -0.0585
     68 C          28.4340   -0.7480  126.5720 C.ar    1  UNL1       -0.0615
     69 C          30.5690    0.0750  125.8090 C.ar    1  UNL1       -0.0615
     70 C          29.6190   -0.9430  125.8660 C.ar    1  UNL1       -0.0617
     71 N          27.5630    3.2790  124.8490 N.am    1  UNL1       -0.2997
     72 C          26.5080    3.4040  123.8380 C.3     1  UNL1        0.1340
     73 C          26.5150    2.1350  122.9630 C.2     1  UNL1        0.2399
     74 O          27.2540    2.0420  121.9820 O.2     1  UNL1       -0.2734
     75 C          26.7670    4.6560  122.9820 C.3     1  UNL1        0.1193
     76 O          25.5800    5.0020  122.2560 O.3     1  UNL1       -0.4610
     77 N          25.7800    1.0520  123.4030 N.am    1  UNL1       -0.2883
     78 C          25.7650   -0.2280  122.6890 C.3     1  UNL1        0.1025
     79 C          24.5630   -0.3490  121.7070 C.2     1  UNL1        0.2365
     80 O          23.4200   -0.4840  122.1600 O.2     1  UNL1       -0.2735
     81 C          25.5980   -1.2410  123.8300 C.3     1  UNL1       -0.0243
     82 C          24.7370   -0.5140  124.8590 C.3     1  UNL1       -0.0350
     83 C          25.1050    0.9530  124.6900 C.3     1  UNL1        0.0156
     84 N          24.7630   -0.2920  120.3300 N.am    1  UNL1       -0.2917
     85 C          23.6490   -0.6820  119.4610 C.3     1  UNL1        0.0040
     86 C          25.9620    0.2820  119.6660 C.3     1  UNL1        0.0991
     87 C          26.4640   -0.5790  118.5060 C.3     1  UNL1       -0.0379
     88 C          25.7360    1.7430  119.1880 C.2     1  UNL1        0.2339
     89 O          26.5210    2.3210  118.4380 O.2     1  UNL1       -0.2738
     90 N          24.6360    2.3730  119.7200 N.am    1  UNL1       -0.3027
     91 C          24.3020    3.7600  119.4390 C.3     1  UNL1        0.0968
     92 C          23.2300    4.1990  120.4560 C.2     1  UNL1        0.2363
     93 O          22.3140    3.4310  120.7670 O.2     1  UNL1       -0.2736
     94 C          23.7400    3.9380  118.0330 C.3     1  UNL1       -0.0381
     95 C          25.6630    6.1690  121.5570 C.2     1  UNL1        0.3279
     96 N          23.3080    5.4670  120.9870 N.am    1  UNL1       -0.2862
     97 O          26.6440    6.9030  121.5390 O.2     1  UNL1       -0.2487
     98 C          24.3690    6.4600  120.7750 C.3     1  UNL1        0.1233
     99 C          23.7380    7.7600  121.2770 C.3     1  UNL1       -0.0199
    100 C          22.2880    5.9620  121.8980 C.3     1  UNL1        0.0182
    101 C          21.7630    8.2850  122.7990 C.3     1  UNL1       -0.0609
    102 C          22.8420    7.2840  122.4270 C.3     1  UNL1       -0.0258
@<TRIPOS>BOND
     1    33    94    1
     2    40    87    1
     3    34    94    1
     4    30    94    1
     5    94    91    1
     6    38    87    1
     7    89    88    2
     8    87    41    1
     9    87    86    1
    10     9    85    1
    11     8    85    1
    12    88    86    1
    13    88    90   am
    14    91    32    1
    15    91    90    1
    16    91    92    1
    17    85     7    1
    18    85    84    1
    19    86    84    1
    20    86    39    1
    21    43    98    1
    22    90    31    1
    23    84    79   am
    24    92    93    2
    25    92    96   am
    26    44    99    1
    27    98    96    1
    28    98    99    1
    29    98    95    1
    30    96   100    1
    31    99    48    1
    32    99   102    1
    33    49   100    1
    34    97    95    2
    35    95    76    1
    36    79    80    2
    37    79    78    1
    38   100   102    1
    39   100    45    1
    40    46   101    1
    41    74    73    2
    42    24    78    1
    43    76    75    1
    44    19    75    1
    45   102   101    1
    46   102    42    1
    47    78    77    1
    48    78    81    1
    49   101    50    1
    50   101    47    1
    51    73    77   am
    52    73    72    1
    53    75    22    1
    54    75    72    1
    55    77    83    1
    56    28    81    1
    57    81    25    1
    58    81    82    1
    59    72    21    1
    60    72    71    1
    61    20    71    1
    62    29    82    1
    63    83    23    1
    64    83    82    1
    65    83    27    1
    66    71    62   am
    67    82    26    1
    68    17    69    1
    69    10    70    1
    70    69    70   ar
    71    69    67   ar
    72    70    68   ar
    73    62    63    2
    74    62    61    1
    75    12    61    1
    76    15    67    1
    77    67    65   ar
    78    68    16    1
    79    68    66   ar
    80    61    60    1
    81    61    64    1
    82    65    66   ar
    83    65    64    1
    84    66    14    1
    85    60    11    1
    86    60    51   am
    87    59    51    2
    88    64    13    1
    89    64    18    1
    90    51    52    1
    91     2    53    1
    92    52    53    2
    93    52     1    1
    94    53    54    1
    95     4    55    1
    96    54    55    2
    97    54     3    1
    98    55    56    1
    99     6    57    1
   100    36    58    1
   101    56    57    2
   102    56     5    1
   103    57    58    1
   104    58    35    1
   105    58    37    1
