@<TRIPOS>MOLECULE
122.48524
 102 105 0 0 0
SMALL
GASTEIGER

@<TRIPOS>ATOM
      1 H          34.2270    0.9560  128.5850 H       1  UNL1        0.0669
      2 H          33.3590   -1.4220  130.3430 H       1  UNL1        0.0619
      3 H          36.1410   -0.1330  129.7760 H       1  UNL1        0.0618
      4 H          35.2220   -2.5400  131.4550 H       1  UNL1        0.0617
      5 H          38.0110   -1.2610  130.9100 H       1  UNL1        0.0614
      6 H          37.0840   -3.6880  132.5540 H       1  UNL1        0.0569
      7 H          31.2640    6.8960  123.0590 H       1  UNL1        0.0429
      8 H          30.9680    7.8720  121.6060 H       1  UNL1        0.0429
      9 H          32.2420    6.6180  121.6090 H       1  UNL1        0.0429
     10 H          31.3520    7.3110  128.8610 H       1  UNL1        0.0618
     11 H          32.5180    1.7670  127.3410 H       1  UNL1        0.1498
     12 H          29.9870    0.3760  127.2530 H       1  UNL1        0.0598
     13 H          29.5210    1.7700  129.2350 H       1  UNL1        0.0336
     14 H          31.2980    3.2160  130.1470 H       1  UNL1        0.0620
     15 H          28.9540    4.4640  126.7390 H       1  UNL1        0.0620
     16 H          32.1050    5.5340  130.4200 H       1  UNL1        0.0618
     17 H          29.7800    6.7590  127.0200 H       1  UNL1        0.0618
     18 H          28.5480    2.2740  127.8790 H       1  UNL1        0.0336
     19 H          28.9410    1.5870  121.8420 H       1  UNL1        0.0721
     20 H          28.4580    1.6210  125.6640 H       1  UNL1        0.1496
     21 H          29.8370    3.2880  123.7200 H       1  UNL1        0.0629
     22 H          29.0500    0.3890  123.1520 H       1  UNL1        0.0721
     23 H          25.6670    4.6720  123.8830 H       1  UNL1        0.0465
     24 H          28.6650    3.7330  121.2460 H       1  UNL1        0.0597
     25 H          26.7110    4.5960  120.2040 H       1  UNL1        0.0288
     26 H          25.0810    5.8590  121.4910 H       1  UNL1        0.0281
     27 H          25.3390    3.6540  122.4600 H       1  UNL1        0.0465
     28 H          27.5090    6.1640  120.4480 H       1  UNL1        0.0288
     29 H          26.3500    6.5310  122.5320 H       1  UNL1        0.0281
     30 H          34.7320    4.1300  119.9850 H       1  UNL1        0.0252
     31 H          32.1840    4.4460  121.6240 H       1  UNL1        0.1495
     32 H          32.5580    1.9730  120.1630 H       1  UNL1        0.0592
     33 H          33.8320    3.4380  118.6330 H       1  UNL1        0.0252
     34 H          34.9620    2.4290  119.5550 H       1  UNL1        0.0252
     35 H          39.8540   -2.3950  132.0010 H       1  UNL1        0.0272
     36 H          39.5510   -4.1380  132.1230 H       1  UNL1        0.0272
     37 H          39.3520   -3.1000  133.5480 H       1  UNL1        0.0272
     38 H          30.7930    6.2600  118.0540 H       1  UNL1        0.0252
     39 H          29.3600    5.2180  119.6950 H       1  UNL1        0.0594
     40 H          31.9070    6.8420  119.2860 H       1  UNL1        0.0252
     41 H          30.2570    7.4950  119.2040 H       1  UNL1        0.0252
     42 H          32.5470   -0.3430  124.5830 H       1  UNL1        0.0314
     43 H          33.1080    0.0030  120.8290 H       1  UNL1        0.0616
     44 H          34.2630   -1.4590  122.3070 H       1  UNL1        0.0292
     45 H          33.8970    1.6460  124.5190 H       1  UNL1        0.0467
     46 H          35.3950   -1.4860  124.5490 H       1  UNL1        0.0233
     47 H          34.5600   -0.8240  125.9640 H       1  UNL1        0.0233
     48 H          32.6080   -1.9330  122.7370 H       1  UNL1        0.0292
     49 H          35.2040    0.8420  123.6300 H       1  UNL1        0.0467
     50 H          33.9550   -2.2970  125.1850 H       1  UNL1        0.0233
     51 C          32.1270    0.2860  128.7630 C.2     1  UNL1        0.2375
     52 C          33.5790    0.2320  129.0600 C.2     1  UNL1        0.0001
     53 C          34.0490   -0.7110  129.8900 C.2     1  UNL1       -0.0569
     54 C          35.4510   -0.8500  130.2160 C.2     1  UNL1       -0.0616
     55 C          35.9130   -1.8210  131.0180 C.2     1  UNL1       -0.0621
     56 C          37.3140   -1.9790  131.3370 C.2     1  UNL1       -0.0659
     57 C          37.7730   -2.9640  132.1230 C.2     1  UNL1       -0.0871
     58 C          39.2150   -3.1540  132.4640 C.3     1  UNL1       -0.0465
     59 O          31.3030   -0.4270  129.3210 O.2     1  UNL1       -0.2708
     60 N          31.8110    1.1950  127.7930 N.am    1  UNL1       -0.3002
     61 C          30.4440    1.3730  127.3130 C.3     1  UNL1        0.1036
     62 C          30.5080    1.9230  125.8760 C.2     1  UNL1        0.2344
     63 O          31.5580    2.3090  125.3650 O.2     1  UNL1       -0.2738
     64 C          29.5820    2.2420  128.2460 C.3     1  UNL1       -0.0006
     65 C          30.0700    3.6630  128.4220 C.ar    1  UNL1       -0.0451
     66 C          30.9600    3.9850  129.4560 C.ar    1  UNL1       -0.0585
     67 C          29.6470    4.6770  127.5510 C.ar    1  UNL1       -0.0585
     68 C          31.4180    5.2940  129.6140 C.ar    1  UNL1       -0.0615
     69 C          30.1100    5.9840  127.7070 C.ar    1  UNL1       -0.0615
     70 C          30.9940    6.2920  128.7390 C.ar    1  UNL1       -0.0617
     71 N          29.3130    1.9260  125.2040 N.am    1  UNL1       -0.2997
     72 C          29.1510    2.4450  123.8390 C.3     1  UNL1        0.1340
     73 C          27.6930    2.9150  123.7530 C.2     1  UNL1        0.2399
     74 O          26.8410    2.3870  124.4790 O.2     1  UNL1       -0.2734
     75 C          29.4240    1.3580  122.7970 C.3     1  UNL1        0.1193
     76 O          30.8430    1.2920  122.5640 O.3     1  UNL1       -0.4610
     77 N          27.3530    3.9110  122.8690 N.am    1  UNL1       -0.2883
     78 C          28.1690    4.5280  121.8080 C.3     1  UNL1        0.1025
     79 C          29.2410    5.5180  122.3330 C.2     1  UNL1        0.2365
     80 O          29.1710    5.9490  123.4870 O.2     1  UNL1       -0.2735
     81 C          27.1280    5.2750  120.9580 C.3     1  UNL1       -0.0243
     82 C          26.0440    5.6450  121.9620 C.3     1  UNL1       -0.0350
     83 C          25.9960    4.4310  122.8670 C.3     1  UNL1        0.0156
     84 N          30.2600    5.9160  121.4600 N.am    1  UNL1       -0.2917
     85 C          31.2410    6.8750  121.9660 C.3     1  UNL1        0.0040
     86 C          30.3610    5.4880  120.0390 C.3     1  UNL1        0.0991
     87 C          30.8590    6.5860  119.0980 C.3     1  UNL1       -0.0379
     88 C          31.1960    4.2100  119.8110 C.2     1  UNL1        0.2339
     89 O          31.0900    3.5620  118.7710 O.2     1  UNL1       -0.2738
     90 N          32.1360    3.9130  120.7610 N.am    1  UNL1       -0.3027
     91 C          33.0920    2.8240  120.5880 C.3     1  UNL1        0.0968
     92 C          33.7040    2.5030  121.9620 C.2     1  UNL1        0.2363
     93 O          34.2940    3.3880  122.5920 O.2     1  UNL1       -0.2736
     94 C          34.2170    3.2270  119.6360 C.3     1  UNL1       -0.0381
     95 C          31.2840    0.1660  121.9460 C.2     1  UNL1        0.3279
     96 N          33.5340    1.2400  122.4790 N.am    1  UNL1       -0.2862
     97 O          30.5500   -0.7080  121.4990 O.2     1  UNL1       -0.2487
     98 C          32.8220    0.0990  121.8810 C.3     1  UNL1        0.1233
     99 C          33.3100   -1.0930  122.7110 C.3     1  UNL1       -0.0199
    100 C          34.1160    0.8860  123.7640 C.3     1  UNL1        0.0182
    101 C          34.4110   -1.3190  124.9990 C.3     1  UNL1       -0.0609
    102 C          33.5230   -0.4790  124.0990 C.3     1  UNL1       -0.0258
@<TRIPOS>BOND
     1    38    87    1
     2    33    94    1
     3    89    88    2
     4    87    41    1
     5    87    40    1
     6    87    86    1
     7    34    94    1
     8    94    30    1
     9    94    91    1
    10    39    86    1
    11    88    86    1
    12    88    90   am
    13    86    84    1
    14    32    91    1
    15    25    81    1
    16    28    81    1
    17    91    90    1
    18    91    92    1
    19    90    31    1
    20    43    98    1
    21    81    78    1
    22    81    82    1
    23    24    78    1
    24    84    85    1
    25    84    79   am
    26    26    82    1
    27    97    95    2
    28     8    85    1
    29     9    85    1
    30    78    79    1
    31    78    77    1
    32    19    75    1
    33    98    95    1
    34    98    96    1
    35    98    99    1
    36    95    76    1
    37    92    96   am
    38    92    93    2
    39    82    29    1
    40    82    83    1
    41    85     7    1
    42    44    99    1
    43    79    80    2
    44    27    83    1
    45    96   100    1
    46    76    75    1
    47    99    48    1
    48    99   102    1
    49    75    22    1
    50    75    72    1
    51    83    77    1
    52    83    23    1
    53    77    73   am
    54    49   100    1
    55    21    72    1
    56    73    72    1
    57    73    74    2
    58   100   102    1
    59   100    45    1
    60    72    71    1
    61   102    42    1
    62   102   101    1
    63    46   101    1
    64   101    50    1
    65   101    47    1
    66    71    20    1
    67    71    62   am
    68    63    62    2
    69    62    61    1
    70    15    67    1
    71    17    69    1
    72    12    61    1
    73    61    60    1
    74    61    64    1
    75    11    60    1
    76    67    69   ar
    77    67    65   ar
    78    69    70   ar
    79    60    51   am
    80    18    64    1
    81    64    65    1
    82    64    13    1
    83    65    66   ar
    84     1    52    1
    85    70    10    1
    86    70    68   ar
    87    51    52    1
    88    51    59    2
    89    52    53    2
    90    66    68   ar
    91    66    14    1
    92    68    16    1
    93     3    54    1
    94    53    54    1
    95    53     2    1
    96    54    55    2
    97     5    56    1
    98    55    56    1
    99    55     4    1
   100    56    57    2
   101    35    58    1
   102    36    58    1
   103    57    58    1
   104    57     6    1
   105    58    37    1
