@<TRIPOS>MOLECULE
134.03022
 102 105 0 0 0
SMALL
GASTEIGER

@<TRIPOS>ATOM
      1 H          34.6360    2.6490  118.0070 H       1  UNL1        0.0669
      2 H          34.8800    2.7650  121.0810 H       1  UNL1        0.0619
      3 H          36.9210    2.0080  118.8470 H       1  UNL1        0.0618
      4 H          37.0580    2.0790  121.9200 H       1  UNL1        0.0617
      5 H          39.1210    1.3270  119.7070 H       1  UNL1        0.0614
      6 H          39.2350    1.3600  122.7790 H       1  UNL1        0.0569
      7 H          29.2540    0.7230  125.3670 H       1  UNL1        0.0429
      8 H          29.4970    2.2910  126.1550 H       1  UNL1        0.0429
      9 H          30.9020    1.3220  125.6410 H       1  UNL1        0.0429
     10 H          34.3690    9.3610  117.2030 H       1  UNL1        0.0618
     11 H          32.7840    3.8940  117.4300 H       1  UNL1        0.1498
     12 H          30.9340    4.8180  119.4500 H       1  UNL1        0.0598
     13 H          29.7080    5.8520  117.5200 H       1  UNL1        0.0336
     14 H          31.2610    7.2800  119.3000 H       1  UNL1        0.0620
     15 H          32.4070    6.0430  115.3220 H       1  UNL1        0.0620
     16 H          32.9500    9.0720  119.2150 H       1  UNL1        0.0618
     17 H          34.0880    7.8460  115.2600 H       1  UNL1        0.0618
     18 H          30.6520    4.9040  116.3890 H       1  UNL1        0.0336
     19 H          29.2740   -0.9540  119.6570 H       1  UNL1        0.0721
     20 H          30.8340    2.2390  119.9510 H       1  UNL1        0.1496
     21 H          28.8390    0.8820  118.4360 H       1  UNL1        0.0629
     22 H          28.8820   -0.1900  121.1640 H       1  UNL1        0.0721
     23 H          25.5440    2.1500  121.7050 H       1  UNL1        0.0465
     24 H          29.4920    3.1940  121.4860 H       1  UNL1        0.0597
     25 H          28.0300    5.0800  121.8130 H       1  UNL1        0.0288
     26 H          25.7820    4.7570  122.6670 H       1  UNL1        0.0281
     27 H          25.8120    3.5330  120.6180 H       1  UNL1        0.0465
     28 H          28.3230    4.6230  123.5030 H       1  UNL1        0.0288
     29 H          26.2780    3.3370  123.5990 H       1  UNL1        0.0281
     30 H          34.2300    0.3620  124.9550 H       1  UNL1        0.0252
     31 H          31.3740    0.8350  123.4110 H       1  UNL1        0.1495
     32 H          33.7660    0.8840  121.9730 H       1  UNL1        0.0592
     33 H          35.0240    1.5830  123.9570 H       1  UNL1        0.0252
     34 H          35.3600   -0.1280  123.6820 H       1  UNL1        0.0252
     35 H          41.2760    0.6230  120.5560 H       1  UNL1        0.0272
     36 H          41.1120   -0.2220  122.1060 H       1  UNL1        0.0272
     37 H          41.6770    1.4600  122.0670 H       1  UNL1        0.0272
     38 H          31.8070    5.1100  124.7450 H       1  UNL1        0.0252
     39 H          30.6980    3.9070  122.9690 H       1  UNL1        0.0594
     40 H          31.5080    3.8200  125.9080 H       1  UNL1        0.0252
     41 H          30.1510    4.7700  125.2760 H       1  UNL1        0.0252
     42 H          31.5450   -3.2370  119.6840 H       1  UNL1        0.0314
     43 H          33.8400   -0.2410  120.2660 H       1  UNL1        0.0616
     44 H          34.4990   -2.4430  119.5770 H       1  UNL1        0.0292
     45 H          31.6440   -3.2150  122.0330 H       1  UNL1        0.0467
     46 H          34.1170   -4.8630  120.0900 H       1  UNL1        0.0233
     47 H          32.4630   -5.4840  120.2200 H       1  UNL1        0.0233
     48 H          33.2470   -2.1030  118.3680 H       1  UNL1        0.0292
     49 H          33.3930   -3.5330  122.0840 H       1  UNL1        0.0467
     50 H          33.0740   -4.9060  118.6600 H       1  UNL1        0.0233
     51 C          32.9570    3.1590  119.3500 C.2     1  UNL1        0.2375
     52 C          34.3540    2.7840  119.0420 C.2     1  UNL1        0.0001
     53 C          35.2100    2.5930  120.0560 C.2     1  UNL1       -0.0569
     54 C          36.5760    2.1580  119.8680 C.2     1  UNL1       -0.0616
     55 C          37.4030    1.9270  120.8980 C.2     1  UNL1       -0.0621
     56 C          38.7630    1.4700  120.7250 C.2     1  UNL1       -0.0659
     57 C          39.5820    1.2200  121.7580 C.2     1  UNL1       -0.0871
     58 C          40.9900    0.7440  121.6060 C.3     1  UNL1       -0.0465
     59 O          32.4210    2.9170  120.4250 O.2     1  UNL1       -0.2708
     60 N          32.3020    3.7450  118.3070 N.am    1  UNL1       -0.3002
     61 C          30.9700    4.3440  118.4600 C.3     1  UNL1        0.1036
     62 C          29.8530    3.2750  118.4480 C.2     1  UNL1        0.2344
     63 O          28.8490    3.3770  117.7470 O.2     1  UNL1       -0.2738
     64 C          30.6970    5.3980  117.3690 C.3     1  UNL1       -0.0006
     65 C          31.7210    6.5110  117.3250 C.ar    1  UNL1       -0.0451
     66 C          31.8800    7.3830  118.4110 C.ar    1  UNL1       -0.0585
     67 C          32.5220    6.6910  116.1880 C.ar    1  UNL1       -0.0585
     68 C          32.8330    8.4020  118.3670 C.ar    1  UNL1       -0.0615
     69 C          33.4730    7.7120  116.1460 C.ar    1  UNL1       -0.0615
     70 C          33.6300    8.5650  117.2370 C.ar    1  UNL1       -0.0617
     71 N          29.9790    2.2810  119.3990 N.am    1  UNL1       -0.2997
     72 C          29.0180    1.1910  119.4760 C.3     1  UNL1        0.1340
     73 C          27.6380    1.6280  120.0170 C.2     1  UNL1        0.2399
     74 O          26.6220    1.1060  119.5400 O.2     1  UNL1       -0.2734
     75 C          29.4760   -0.0540  120.2550 C.3     1  UNL1        0.1193
     76 O          30.8520   -0.0850  120.6790 O.3     1  UNL1       -0.4610
     77 N          27.5340    2.4760  121.1010 N.am    1  UNL1       -0.2883
     78 C          28.5670    2.9910  122.0150 C.3     1  UNL1        0.1025
     79 C          28.8470    2.0170  123.1970 C.2     1  UNL1        0.2365
     80 O          28.1380    1.0210  123.3660 O.2     1  UNL1       -0.2735
     81 C          27.9200    4.2730  122.5490 C.3     1  UNL1       -0.0243
     82 C          26.4480    3.8900  122.6680 C.3     1  UNL1       -0.0350
     83 C          26.2200    2.9790  121.4710 C.3     1  UNL1        0.0156
     84 N          29.8620    2.3320  124.1040 N.am    1  UNL1       -0.2917
     85 C          29.8820    1.6170  125.3830 C.3     1  UNL1        0.0040
     86 C          30.9440    3.3220  123.8580 C.3     1  UNL1        0.0991
     87 C          31.1090    4.3100  125.0130 C.3     1  UNL1       -0.0379
     88 C          32.3090    2.6660  123.5210 C.2     1  UNL1        0.2339
     89 O          33.3370    3.3300  123.4000 O.2     1  UNL1       -0.2738
     90 N          32.2700    1.3060  123.3270 N.am    1  UNL1       -0.3027
     91 C          33.4210    0.5080  122.9330 C.3     1  UNL1        0.0968
     92 C          32.9690   -0.9600  122.8500 C.2     1  UNL1        0.2363
     93 O          32.6290   -1.5630  123.8740 O.2     1  UNL1       -0.2736
     94 C          34.5710    0.5880  123.9380 C.3     1  UNL1       -0.0381
     95 C          31.7660   -0.3600  119.7080 C.2     1  UNL1        0.3279
     96 N          32.8880   -1.5730  121.6210 N.am    1  UNL1       -0.2862
     97 O          31.5960   -0.1240  118.5180 O.2     1  UNL1       -0.2487
     98 C          33.0520   -0.9960  120.2780 C.3     1  UNL1        0.1233
     99 C          33.4330   -2.2200  119.4400 C.3     1  UNL1       -0.0199
    100 C          32.6010   -2.9990  121.5460 C.3     1  UNL1        0.0182
    101 C          33.0880   -4.7250  119.7390 C.3     1  UNL1       -0.0609
    102 C          32.5740   -3.3310  120.0550 C.3     1  UNL1       -0.0258
@<TRIPOS>BOND
     1    17    69    1
     2    15    67    1
     3    69    67   ar
     4    69    70   ar
     5    67    65   ar
     6    18    64    1
     7    10    70    1
     8    70    68   ar
     9    65    64    1
    10    65    66   ar
    11    64    13    1
    12    64    61    1
    13    11    60    1
    14    63    62    2
    15     1    52    1
    16    60    61    1
    17    60    51   am
    18    68    66   ar
    19    68    16    1
    20    48    99    1
    21    66    14    1
    22    21    72    1
    23    62    61    1
    24    62    71   am
    25    61    12    1
    26    97    95    2
    27    50   101    1
    28     3    54    1
    29    52    51    1
    30    52    53    2
    31    51    59    2
    32    71    72    1
    33    71    20    1
    34    99    44    1
    35    99   102    1
    36    99    98    1
    37    72    73    1
    38    72    75    1
    39    74    73    2
    40    19    75    1
    41    42   102    1
    42     5    56    1
    43    95    98    1
    44    95    76    1
    45   101   102    1
    46   101    46    1
    47   101    47    1
    48    54    53    1
    49    54    55    2
    50    73    77   am
    51   102   100    1
    52    53     2    1
    53    75    76    1
    54    75    22    1
    55    43    98    1
    56    98    96    1
    57    35    58    1
    58    27    83    1
    59    56    55    1
    60    56    57    2
    61    55     4    1
    62    77    83    1
    63    77    78    1
    64    83    23    1
    65    83    82    1
    66    24    78    1
    67   100    96    1
    68   100    45    1
    69   100    49    1
    70    58    57    1
    71    58    37    1
    72    58    36    1
    73    96    92   am
    74    57     6    1
    75    25    81    1
    76    32    91    1
    77    78    81    1
    78    78    79    1
    79    81    82    1
    80    81    28    1
    81    26    82    1
    82    82    29    1
    83    92    91    1
    84    92    93    2
    85    91    90    1
    86    91    94    1
    87    39    86    1
    88    79    80    2
    89    79    84   am
    90    90    31    1
    91    90    88   am
    92    89    88    2
    93    88    86    1
    94    34    94    1
    95    86    84    1
    96    86    87    1
    97    94    33    1
    98    94    30    1
    99    84    85    1
   100    38    87    1
   101    87    41    1
   102    87    40    1
   103     7    85    1
   104    85     9    1
   105    85     8    1
