@<TRIPOS>MOLECULE
129.74046
 102 105 0 0 0
SMALL
GASTEIGER

@<TRIPOS>ATOM
      1 H          28.5870    1.5960  122.6340 H       1  UNL1        0.0669
      2 H          29.7070    4.3150  123.5510 H       1  UNL1        0.0619
      3 H          28.3030    1.9710  125.0590 H       1  UNL1        0.0618
      4 H          29.3360    4.7240  125.9560 H       1  UNL1        0.0617
      5 H          27.9350    2.3670  127.4400 H       1  UNL1        0.0614
      6 H          28.9330    5.1290  128.3470 H       1  UNL1        0.0569
      7 H          28.8760   -0.0060  111.5190 H       1  UNL1        0.0429
      8 H          27.9680   -1.3550  110.8290 H       1  UNL1        0.0429
      9 H          28.7150   -1.5070  112.4470 H       1  UNL1        0.0429
     10 H          31.5840    3.7420  113.2850 H       1  UNL1        0.0618
     11 H          28.4910    1.4220  120.4100 H       1  UNL1        0.1498
     12 H          29.2470    3.6550  118.7020 H       1  UNL1        0.0598
     13 H          30.5620    0.8830  118.3110 H       1  UNL1        0.0336
     14 H          29.9730    0.7550  115.9040 H       1  UNL1        0.0620
     15 H          31.9010    4.2630  117.5350 H       1  UNL1        0.0620
     16 H          30.3950    1.5950  113.6270 H       1  UNL1        0.0618
     17 H          32.3410    5.0680  115.2410 H       1  UNL1        0.0618
     18 H          31.4190    2.2620  118.9540 H       1  UNL1        0.0336
     19 H          24.2920    2.3640  116.2960 H       1  UNL1        0.0721
     20 H          28.0120    3.5590  116.7870 H       1  UNL1        0.1496
     21 H          26.7770    1.2660  115.7680 H       1  UNL1        0.0629
     22 H          25.1310    2.8130  117.8020 H       1  UNL1        0.0721
     23 H          26.0880    4.5040  112.6230 H       1  UNL1        0.0465
     24 H          25.2640    0.8290  114.1970 H       1  UNL1        0.0597
     25 H          23.4640    1.6790  112.8370 H       1  UNL1        0.0288
     26 H          23.8490    3.4880  111.2790 H       1  UNL1        0.0281
     27 H          24.4760    4.4450  113.3730 H       1  UNL1        0.0465
     28 H          24.4210    0.8760  111.5750 H       1  UNL1        0.0288
     29 H          25.5020    2.9450  110.9600 H       1  UNL1        0.0281
     30 H          27.7140   -2.3030  117.0200 H       1  UNL1        0.0252
     31 H          25.0280   -3.2900  114.3680 H       1  UNL1        0.1495
     32 H          25.3800   -4.1730  116.4160 H       1  UNL1        0.0592
     33 H          27.9000   -3.8480  116.1830 H       1  UNL1        0.0252
     34 H          27.2620   -3.8130  117.8190 H       1  UNL1        0.0252
     35 H          27.5310    2.7610  129.7900 H       1  UNL1        0.0272
     36 H          27.2180    4.4760  130.1120 H       1  UNL1        0.0272
     37 H          28.8010    3.7730  130.5010 H       1  UNL1        0.0272
     38 H          25.0600   -3.2610  112.2320 H       1  UNL1        0.0252
     39 H          25.0320   -0.9790  113.0020 H       1  UNL1        0.0594
     40 H          26.7960   -3.2270  111.9280 H       1  UNL1        0.0252
     41 H          25.6900   -2.2740  110.9140 H       1  UNL1        0.0252
     42 H          25.8920   -0.2060  120.3680 H       1  UNL1        0.0314
     43 H          22.8080   -1.2340  118.3510 H       1  UNL1        0.0616
     44 H          23.3450   -1.8760  120.5720 H       1  UNL1        0.0292
     45 H          26.8190   -1.7850  118.9280 H       1  UNL1        0.0467
     46 H          25.2560   -2.7830  121.9080 H       1  UNL1        0.0233
     47 H          26.8150   -1.9430  121.8870 H       1  UNL1        0.0233
     48 H          23.5090   -0.1200  120.7650 H       1  UNL1        0.0292
     49 H          25.7670   -3.1210  119.4780 H       1  UNL1        0.0467
     50 H          25.3960   -1.1610  122.6060 H       1  UNL1        0.0233
     51 C          29.5200    3.0320  121.2380 C.2     1  UNL1        0.2375
     52 C          29.0680    2.5640  122.5710 C.2     1  UNL1        0.0001
     53 C          29.2300    3.3410  123.6520 C.2     1  UNL1       -0.0569
     54 C          28.7680    2.9500  124.9660 C.2     1  UNL1       -0.0616
     55 C          28.8770    3.7410  126.0440 C.2     1  UNL1       -0.0621
     56 C          28.3930    3.3510  127.3490 C.2     1  UNL1       -0.0659
     57 C          28.4800    4.1440  128.4270 C.2     1  UNL1       -0.0871
     58 C          27.9770    3.7600  129.7810 C.3     1  UNL1       -0.0465
     59 O          30.2010    4.0340  121.0740 O.2     1  UNL1       -0.2708
     60 N          29.0650    2.2370  120.2240 N.am    1  UNL1       -0.3002
     61 C          29.2730    2.5650  118.8140 C.3     1  UNL1        0.1036
     62 C          28.0790    1.9320  118.0790 C.2     1  UNL1        0.2344
     63 O          27.6240    0.8410  118.4250 O.2     1  UNL1       -0.2738
     64 C          30.5910    1.9810  118.2900 C.3     1  UNL1       -0.0006
     65 C          30.9150    2.4450  116.8890 C.ar    1  UNL1       -0.0451
     66 C          30.5050    1.6970  115.7760 C.ar    1  UNL1       -0.0585
     67 C          31.5800    3.6620  116.6860 C.ar    1  UNL1       -0.0585
     68 C          30.7420    2.1660  114.4850 C.ar    1  UNL1       -0.0615
     69 C          31.8280    4.1220  115.3920 C.ar    1  UNL1       -0.0615
     70 C          31.4060    3.3760  114.2930 C.ar    1  UNL1       -0.0617
     71 N          27.5740    2.6770  117.0440 N.am    1  UNL1       -0.2997
     72 C          26.4730    2.2280  116.1870 C.3     1  UNL1        0.1340
     73 C          26.2730    3.2720  115.0760 C.2     1  UNL1        0.2399
     74 O          26.4990    4.4660  115.3060 O.2     1  UNL1       -0.2734
     75 C          25.1400    2.1240  116.9490 C.3     1  UNL1        0.1193
     76 O          24.9530    0.7760  117.4050 O.3     1  UNL1       -0.4610
     77 N          25.7160    2.8630  113.8840 N.am    1  UNL1       -0.2883
     78 C          25.5500    1.4930  113.3800 C.3     1  UNL1        0.1025
     79 C          26.8490    0.9810  112.6870 C.2     1  UNL1        0.2365
     80 O          27.7300    1.7810  112.3540 O.2     1  UNL1       -0.2735
     81 C          24.4410    1.6590  112.3390 C.3     1  UNL1       -0.0243
     82 C          24.7320    3.0320  111.7360 C.3     1  UNL1       -0.0350
     83 C          25.2650    3.8420  112.9100 C.3     1  UNL1        0.0156
     84 N          26.9550   -0.3790  112.3770 N.am    1  UNL1       -0.2917
     85 C          28.1990   -0.8300  111.7600 C.3     1  UNL1        0.0040
     86 C          26.0270   -1.4190  112.8860 C.3     1  UNL1        0.0991
     87 C          25.8900   -2.6110  111.9370 C.3     1  UNL1       -0.0379
     88 C          26.4830   -1.8300  114.3110 C.2     1  UNL1        0.2339
     89 O          27.2840   -1.1530  114.9520 O.2     1  UNL1       -0.2738
     90 N          25.8260   -2.9120  114.8600 N.am    1  UNL1       -0.3027
     91 C          25.8420   -3.1830  116.3090 C.3     1  UNL1        0.0968
     92 C          24.8070   -2.1840  116.9040 C.2     1  UNL1        0.2363
     93 O          23.8530   -1.8350  116.1850 O.2     1  UNL1       -0.2736
     94 C          27.2530   -3.2820  116.8630 C.3     1  UNL1       -0.0381
     95 C          23.9090    0.5880  118.2540 C.2     1  UNL1        0.3279
     96 N          24.8380   -1.7700  118.2110 N.am    1  UNL1       -0.2862
     97 O          23.1410    1.4740  118.6170 O.2     1  UNL1       -0.2487
     98 C          23.7820   -0.8780  118.7070 C.3     1  UNL1        0.1233
     99 C          23.8950   -0.9910  120.2260 C.3     1  UNL1       -0.0199
    100 C          25.8130   -2.0500  119.2540 C.3     1  UNL1        0.0182
    101 C          25.7340   -1.8050  121.7870 C.3     1  UNL1       -0.0609
    102 C          25.3960   -1.1830  120.4430 C.3     1  UNL1       -0.0258
@<TRIPOS>BOND
     1     8    85    1
     2    41    87    1
     3    29    82    1
     4    26    82    1
     5     7    85    1
     6    28    81    1
     7    82    81    1
     8    82    83    1
     9    85    84    1
    10    85     9    1
    11    40    87    1
    12    87    38    1
    13    87    86    1
    14    81    25    1
    15    81    78    1
    16    80    79    2
    17    84    79   am
    18    84    86    1
    19    23    83    1
    20    79    78    1
    21    86    39    1
    22    86    88    1
    23    83    27    1
    24    83    77    1
    25    10    70    1
    26    78    77    1
    27    78    24    1
    28    16    68    1
    29    77    73   am
    30    70    68   ar
    31    70    69   ar
    32    88    90   am
    33    88    89    2
    34    31    90    1
    35    68    66   ar
    36    90    91    1
    37    73    74    2
    38    73    72    1
    39    17    69    1
    40    69    67   ar
    41    21    72    1
    42    66    14    1
    43    66    65   ar
    44    33    94    1
    45    93    92    2
    46    72    75    1
    47    72    71    1
    48    19    75    1
    49    91    32    1
    50    91    94    1
    51    91    92    1
    52    67    65   ar
    53    67    15    1
    54    20    71    1
    55    94    30    1
    56    94    34    1
    57    65    64    1
    58    92    96   am
    59    75    76    1
    60    75    22    1
    61    71    62   am
    62    76    95    1
    63    62    63    2
    64    62    61    1
    65    96    98    1
    66    96   100    1
    67    95    97    2
    68    95    98    1
    69    64    13    1
    70    64    61    1
    71    64    18    1
    72    43    98    1
    73    12    61    1
    74    98    99    1
    75    61    60    1
    76    45   100    1
    77   100    49    1
    78   100   102    1
    79    60    11    1
    80    60    51   am
    81    99   102    1
    82    99    44    1
    83    99    48    1
    84    42   102    1
    85   102   101    1
    86    59    51    2
    87    51    52    1
    88   101    47    1
    89   101    46    1
    90   101    50    1
    91    52     1    1
    92    52    53    2
    93     2    53    1
    94    53    54    1
    95    54     3    1
    96    54    55    2
    97     4    55    1
    98    55    56    1
    99    56     5    1
   100    56    57    2
   101     6    57    1
   102    57    58    1
   103    58    35    1
   104    58    36    1
   105    58    37    1
