@<TRIPOS>MOLECULE
136.10990
 102 105 0 0 0
SMALL
GASTEIGER

@<TRIPOS>ATOM
      1 H          33.6480    4.7620  119.0040 H       1  UNL1        0.0669
      2 H          32.1860    6.1670  121.3260 H       1  UNL1        0.0619
      3 H          35.1880    5.4710  120.8420 H       1  UNL1        0.0618
      4 H          33.6710    6.8080  123.1590 H       1  UNL1        0.0617
      5 H          36.6720    6.1140  122.6890 H       1  UNL1        0.0614
      6 H          35.1490    7.4360  125.0100 H       1  UNL1        0.0569
      7 H          28.6760   -2.3540  119.2440 H       1  UNL1        0.0429
      8 H          27.6760   -3.7030  119.8250 H       1  UNL1        0.0429
      9 H          29.3340   -3.4750  120.4510 H       1  UNL1        0.0429
     10 H          25.1120    2.1270  114.3230 H       1  UNL1        0.0618
     11 H          32.1540    3.5990  117.7750 H       1  UNL1        0.1498
     12 H          29.3220    4.5210  117.6450 H       1  UNL1        0.0598
     13 H          30.6990    2.2100  116.1170 H       1  UNL1        0.0336
     14 H          28.6320    0.8090  116.3880 H       1  UNL1        0.0620
     15 H          28.4460    4.7970  114.7350 H       1  UNL1        0.0620
     16 H          26.3530    0.3740  115.5670 H       1  UNL1        0.0618
     17 H          26.1660    4.3340  113.9110 H       1  UNL1        0.0618
     18 H          30.5960    3.8350  115.4860 H       1  UNL1        0.0336
     19 H          28.6120    3.5640  122.1570 H       1  UNL1        0.0721
     20 H          28.0190    3.6610  119.1910 H       1  UNL1        0.1496
     21 H          28.5440    1.0410  120.3900 H       1  UNL1        0.0629
     22 H          30.1000    3.0160  121.4240 H       1  UNL1        0.0721
     23 H          24.1990    1.7310  120.5210 H       1  UNL1        0.0465
     24 H          27.3620    0.1260  122.5720 H       1  UNL1        0.0597
     25 H          25.2690   -0.2480  123.6070 H       1  UNL1        0.0288
     26 H          23.2050   -0.0500  122.3380 H       1  UNL1        0.0281
     27 H          24.4220    2.0430  122.2590 H       1  UNL1        0.0465
     28 H          25.2480   -1.7190  122.6210 H       1  UNL1        0.0288
     29 H          23.9990   -0.6370  120.8630 H       1  UNL1        0.0281
     30 H          32.4320   -3.5090  121.3710 H       1  UNL1        0.0252
     31 H          30.2420   -1.6330  121.8800 H       1  UNL1        0.1495
     32 H          31.6610   -2.7390  124.2330 H       1  UNL1        0.0592
     33 H          31.6680   -4.5890  122.5460 H       1  UNL1        0.0252
     34 H          33.3000   -3.9770  122.8430 H       1  UNL1        0.0252
     35 H          38.1350    6.7340  124.5150 H       1  UNL1        0.0272
     36 H          37.3060    6.6060  126.0770 H       1  UNL1        0.0272
     37 H          37.5570    8.1970  125.3330 H       1  UNL1        0.0272
     38 H          26.8820   -4.2250  123.7080 H       1  UNL1        0.0252
     39 H          27.5060   -1.9410  123.2440 H       1  UNL1        0.0594
     40 H          27.5010   -4.7910  122.1540 H       1  UNL1        0.0252
     41 H          26.0530   -3.7790  122.2070 H       1  UNL1        0.0252
     42 H          32.1980    2.7970  123.2880 H       1  UNL1        0.0314
     43 H          30.4350   -0.3700  124.4900 H       1  UNL1        0.0616
     44 H          31.5960    1.2450  125.8570 H       1  UNL1        0.0292
     45 H          33.8210    1.1760  122.7390 H       1  UNL1        0.0467
     46 H          33.6860    2.6230  125.9650 H       1  UNL1        0.0233
     47 H          34.2120    3.5370  124.5430 H       1  UNL1        0.0233
     48 H          30.4980    2.3170  124.9770 H       1  UNL1        0.0292
     49 H          34.0650    0.6780  124.4290 H       1  UNL1        0.0467
     50 H          32.7260    3.9970  125.3930 H       1  UNL1        0.0233
     51 C          31.4560    5.0680  119.0500 C.2     1  UNL1        0.2375
     52 C          32.8360    5.1820  119.5820 C.2     1  UNL1        0.0001
     53 C          33.0350    5.7640  120.7740 C.2     1  UNL1       -0.0569
     54 C          34.3380    5.8670  121.3940 C.2     1  UNL1       -0.0616
     55 C          34.5200    6.4130  122.6050 C.2     1  UNL1       -0.0621
     56 C          35.8170    6.5040  123.2370 C.2     1  UNL1       -0.0659
     57 C          35.9960    7.0420  124.4530 C.2     1  UNL1       -0.0871
     58 C          37.3260    7.1470  125.1260 C.3     1  UNL1       -0.0465
     59 O          30.5010    5.6500  119.5470 O.2     1  UNL1       -0.2708
     60 N          31.3560    4.1760  118.0120 N.am    1  UNL1       -0.3002
     61 C          30.0410    3.6970  117.5740 C.3     1  UNL1        0.1036
     62 C          29.7020    2.5940  118.5910 C.2     1  UNL1        0.2344
     63 O          30.4380    1.6220  118.7650 O.2     1  UNL1       -0.2738
     64 C          30.0930    3.1240  116.1550 C.3     1  UNL1       -0.0006
     65 C          28.7140    2.8340  115.6120 C.ar    1  UNL1       -0.0451
     66 C          28.1080    1.5900  115.8380 C.ar    1  UNL1       -0.0585
     67 C          28.0030    3.8200  114.9160 C.ar    1  UNL1       -0.0585
     68 C          26.8170    1.3380  115.3750 C.ar    1  UNL1       -0.0615
     69 C          26.7120    3.5640  114.4490 C.ar    1  UNL1       -0.0615
     70 C          26.1190    2.3240  114.6800 C.ar    1  UNL1       -0.0617
     71 N          28.6100    2.8540  119.3780 N.am    1  UNL1       -0.2997
     72 C          28.3120    2.0840  120.5900 C.3     1  UNL1        0.1340
     73 C          26.8100    2.2660  120.8390 C.2     1  UNL1        0.2399
     74 O          26.2740    3.3550  120.5960 O.2     1  UNL1       -0.2734
     75 C          29.1130    2.6710  121.7640 C.3     1  UNL1        0.1193
     76 O          29.3380    1.8080  122.8970 O.3     1  UNL1       -0.4610
     77 N          26.0750    1.2110  121.3300 N.am    1  UNL1       -0.2883
     78 C          26.5510   -0.0770  121.8690 C.3     1  UNL1        0.1025
     79 C          27.0720   -1.0600  120.7840 C.2     1  UNL1        0.2365
     80 O          26.7890   -0.8800  119.5960 O.2     1  UNL1       -0.2735
     81 C          25.3070   -0.6310  122.5790 C.3     1  UNL1       -0.0243
     82 C          24.1460   -0.0550  121.7810 C.3     1  UNL1       -0.0350
     83 C          24.6340    1.3390  121.4460 C.3     1  UNL1        0.0156
     84 N          27.8770   -2.1350  121.1850 N.am    1  UNL1       -0.2917
     85 C          28.4280   -2.9640  120.1170 C.3     1  UNL1        0.0040
     86 C          27.9180   -2.6860  122.5590 C.3     1  UNL1        0.0991
     87 C          27.0360   -3.9380  122.6620 C.3     1  UNL1       -0.0379
     88 C          29.3120   -3.0000  123.1530 C.2     1  UNL1        0.2339
     89 O          29.4400   -3.7560  124.1160 O.2     1  UNL1       -0.2738
     90 N          30.3700   -2.2580  122.6790 N.am    1  UNL1       -0.3027
     91 C          31.7290   -2.4950  123.1650 C.3     1  UNL1        0.0968
     92 C          32.7190   -1.2990  123.0900 C.2     1  UNL1        0.2363
     93 O          33.9060   -1.4870  122.8000 O.2     1  UNL1       -0.2736
     94 C          32.3160   -3.7110  122.4420 C.3     1  UNL1       -0.0381
     95 C          30.2270    0.8030  122.6840 C.2     1  UNL1        0.3279
     96 N          32.3290   -0.0590  123.5590 N.am    1  UNL1       -0.2862
     97 O          30.3560    0.2280  121.6090 O.2     1  UNL1       -0.2487
     98 C          30.9930    0.4050  123.9590 C.3     1  UNL1        0.1233
     99 C          31.3170    1.6030  124.8570 C.3     1  UNL1       -0.0199
    100 C          33.3180    1.0030  123.6960 C.3     1  UNL1        0.0182
    101 C          33.3360    3.1460  125.0700 C.3     1  UNL1       -0.0609
    102 C          32.5340    2.2280  124.1640 C.3     1  UNL1       -0.0258
@<TRIPOS>BOND
     1    17    69    1
     2    10    70    1
     3    69    70   ar
     4    69    67   ar
     5    70    68   ar
     6    15    67    1
     7    67    65   ar
     8    68    16    1
     9    68    66   ar
    10    18    64    1
    11    65    66   ar
    12    65    64    1
    13    66    14    1
    14    13    64    1
    15    64    61    1
    16    61    12    1
    17    61    60    1
    18    61    62    1
    19    11    60    1
    20    60    51   am
    21    62    63    2
    22    62    71   am
    23     1    52    1
    24    51    59    2
    25    51    52    1
    26    20    71    1
    27     7    85    1
    28    71    72    1
    29    52    53    2
    30    80    79    2
    31     8    85    1
    32    85     9    1
    33    85    84    1
    34    21    72    1
    35    23    83    1
    36    72    73    1
    37    72    75    1
    38    74    73    2
    39    53     2    1
    40    53    54    1
    41    79    84   am
    42    79    78    1
    43    73    77   am
    44     3    54    1
    45    29    82    1
    46    84    86    1
    47    77    83    1
    48    77    78    1
    49    30    94    1
    50    54    55    2
    51    22    75    1
    52    83    82    1
    53    83    27    1
    54    97    95    2
    55    75    19    1
    56    75    76    1
    57    82    26    1
    58    82    81    1
    59    78    24    1
    60    78    81    1
    61    31    90    1
    62    40    87    1
    63    41    87    1
    64    94    33    1
    65    94    34    1
    66    94    91    1
    67    86    87    1
    68    86    88    1
    69    86    39    1
    70    81    28    1
    71    81    25    1
    72    55     4    1
    73    55    56    1
    74    87    38    1
    75    90    88   am
    76    90    91    1
    77    95    76    1
    78    95    98    1
    79     5    56    1
    80    45   100    1
    81    93    92    2
    82    92    91    1
    83    92    96   am
    84    88    89    2
    85    91    32    1
    86    56    57    2
    87    42   102    1
    88    96   100    1
    89    96    98    1
    90   100   102    1
    91   100    49    1
    92    98    43    1
    93    98    99    1
    94   102    99    1
    95   102   101    1
    96    57     6    1
    97    57    58    1
    98    35    58    1
    99    47   101    1
   100    99    48    1
   101    99    44    1
   102   101    50    1
   103   101    46    1
   104    58    37    1
   105    58    36    1
