@<TRIPOS>MOLECULE
131.56386
 102 105 0 0 0
SMALL
GASTEIGER

@<TRIPOS>ATOM
      1 H          21.6820    1.6180  132.3750 H       1  UNL1        0.0669
      2 H          18.6810    1.2160  132.9500 H       1  UNL1        0.0619
      3 H          21.2540   -0.1080  134.1150 H       1  UNL1        0.0618
      4 H          18.2500   -0.5270  134.6190 H       1  UNL1        0.0617
      5 H          20.8200   -1.8360  135.8000 H       1  UNL1        0.0614
      6 H          17.8160   -2.2820  136.2760 H       1  UNL1        0.0569
      7 H          25.7070    7.3930  128.7930 H       1  UNL1        0.0429
      8 H          26.7300    8.7090  128.1760 H       1  UNL1        0.0429
      9 H          27.4130    7.0760  128.4230 H       1  UNL1        0.0429
     10 H          18.7650    9.2410  126.5050 H       1  UNL1        0.0618
     11 H          22.0590    3.0840  130.7060 H       1  UNL1        0.1498
     12 H          19.8930    4.0100  129.0280 H       1  UNL1        0.0598
     13 H          21.5230    6.0950  130.6220 H       1  UNL1        0.0336
     14 H          21.9690    7.7470  128.9280 H       1  UNL1        0.0620
     15 H          18.0350    5.9810  129.2010 H       1  UNL1        0.0620
     16 H          21.1400    9.3200  127.2360 H       1  UNL1        0.0618
     17 H          17.2210    7.5730  127.4960 H       1  UNL1        0.0618
     18 H          19.8730    5.6820  131.0200 H       1  UNL1        0.0336
     19 H          22.1230    3.3060  124.8360 H       1  UNL1        0.0721
     20 H          20.7530    5.0330  127.0800 H       1  UNL1        0.1496
     21 H          23.6290    5.2090  126.7250 H       1  UNL1        0.0629
     22 H          22.9460    2.6700  126.2440 H       1  UNL1        0.0721
     23 H          21.4210    8.3090  124.4200 H       1  UNL1        0.0465
     24 H          24.8630    6.1080  124.7020 H       1  UNL1        0.0597
     25 H          24.8960    7.6970  122.9460 H       1  UNL1        0.0288
     26 H          23.3440    9.5690  122.9470 H       1  UNL1        0.0281
     27 H          22.1120    7.4820  123.0040 H       1  UNL1        0.0465
     28 H          25.5640    8.7800  124.1810 H       1  UNL1        0.0288
     29 H          23.3830    9.6620  124.7190 H       1  UNL1        0.0281
     30 H          27.0140    2.8260  128.5200 H       1  UNL1        0.0252
     31 H          26.7090    4.9470  127.1080 H       1  UNL1        0.1495
     32 H          29.4780    4.0190  127.1630 H       1  UNL1        0.0592
     33 H          28.0980    4.0340  129.2210 H       1  UNL1        0.0252
     34 H          28.6970    2.4110  128.8420 H       1  UNL1        0.0252
     35 H          20.3950   -3.5590  137.4460 H       1  UNL1        0.0272
     36 H          18.9040   -4.4430  137.0740 H       1  UNL1        0.0272
     37 H          18.9170   -3.2270  138.3660 H       1  UNL1        0.0272
     38 H          28.8150    8.3330  124.7970 H       1  UNL1        0.0252
     39 H          26.8700    6.9030  124.7880 H       1  UNL1        0.0594
     40 H          28.6990    8.6040  126.5360 H       1  UNL1        0.0252
     41 H          27.4700    9.2780  125.4570 H       1  UNL1        0.0252
     42 H          25.5340    0.6820  123.9590 H       1  UNL1        0.0314
     43 H          26.9310    4.1760  124.4630 H       1  UNL1        0.0616
     44 H          27.0090    2.9170  122.4820 H       1  UNL1        0.0292
     45 H          27.5970    0.1580  125.0400 H       1  UNL1        0.0467
     46 H          27.4960    0.6270  121.5960 H       1  UNL1        0.0233
     47 H          26.7760   -0.7890  122.3780 H       1  UNL1        0.0233
     48 H          25.2710    2.8080  122.7760 H       1  UNL1        0.0292
     49 H          28.5730    1.0160  123.8240 H       1  UNL1        0.0467
     50 H          25.7480    0.3590  121.5030 H       1  UNL1        0.0233
     51 C          20.0960    2.7620  131.3410 C.2     1  UNL1        0.2375
     52 C          20.6110    1.7580  132.3040 C.2     1  UNL1        0.0001
     53 C          19.7530    1.0490  133.0520 C.2     1  UNL1       -0.0569
     54 C          20.1830    0.0480  134.0040 C.2     1  UNL1       -0.0616
     55 C          19.3220   -0.6790  134.7310 C.2     1  UNL1       -0.0621
     56 C          19.7490   -1.6850  135.6770 C.2     1  UNL1       -0.0659
     57 C          18.8880   -2.4240  136.3920 C.2     1  UNL1       -0.0871
     58 C          19.3060   -3.4710  137.3730 C.3     1  UNL1       -0.0465
     59 O          18.9080    3.0310  131.2260 O.2     1  UNL1       -0.2708
     60 N          21.0840    3.3440  130.5970 N.am    1  UNL1       -0.3002
     61 C          20.7880    4.3410  129.5690 C.3     1  UNL1        0.1036
     62 C          21.9860    4.3420  128.6010 C.2     1  UNL1        0.2344
     63 O          23.1220    4.0390  128.9660 O.2     1  UNL1       -0.2738
     64 C          20.5830    5.7340  130.1840 C.3     1  UNL1       -0.0006
     65 C          20.0610    6.7470  129.1920 C.ar    1  UNL1       -0.0451
     66 C          20.9210    7.7020  128.6350 C.ar    1  UNL1       -0.0585
     67 C          18.7230    6.7120  128.7790 C.ar    1  UNL1       -0.0585
     68 C          20.4560    8.5960  127.6710 C.ar    1  UNL1       -0.0615
     69 C          18.2590    7.6090  127.8160 C.ar    1  UNL1       -0.0615
     70 C          19.1260    8.5490  127.2600 C.ar    1  UNL1       -0.0617
     71 N          21.6930    4.7170  127.3150 N.am    1  UNL1       -0.2997
     72 C          22.7090    4.8450  126.2690 C.3     1  UNL1        0.1340
     73 C          22.1320    5.8650  125.2760 C.2     1  UNL1        0.2399
     74 O          20.9490    5.7700  124.9240 O.2     1  UNL1       -0.2734
     75 C          22.9360    3.5140  125.5420 C.3     1  UNL1        0.1193
     76 O          24.1590    3.5100  124.7730 O.3     1  UNL1       -0.4610
     77 N          22.9280    6.8860  124.8110 N.am    1  UNL1       -0.2883
     78 C          24.3830    7.0580  124.9510 C.3     1  UNL1        0.1025
     79 C          24.8290    7.4790  126.3760 C.2     1  UNL1        0.2365
     80 O          24.0080    7.9320  127.1770 O.2     1  UNL1       -0.2735
     81 C          24.7070    8.1540  123.9260 C.3     1  UNL1       -0.0243
     82 C          23.4270    8.9780  123.8630 C.3     1  UNL1       -0.0350
     83 C          22.3460    7.9240  123.9790 C.3     1  UNL1        0.0156
     84 N          26.1710    7.3100  126.7320 N.am    1  UNL1       -0.2917
     85 C          26.5280    7.6360  128.1110 C.3     1  UNL1        0.0040
     86 C          27.2870    7.1250  125.7720 C.3     1  UNL1        0.0991
     87 C          28.1110    8.4090  125.6330 C.3     1  UNL1       -0.0379
     88 C          28.2210    5.9250  126.0550 C.2     1  UNL1        0.2339
     89 O          29.3370    5.8430  125.5470 O.2     1  UNL1       -0.2738
     90 N          27.6560    4.8770  126.7440 N.am    1  UNL1       -0.3027
     91 C          28.4310    3.6920  127.0980 C.3     1  UNL1        0.0968
     92 C          28.4760    2.4680  126.1390 C.2     1  UNL1        0.2363
     93 O          29.3180    1.5860  126.3670 O.2     1  UNL1       -0.2736
     94 C          28.0370    3.2140  128.4970 C.3     1  UNL1       -0.0381
     95 C          25.2900    3.2310  125.4780 C.2     1  UNL1        0.3279
     96 N          27.5530    2.2630  125.1350 N.am    1  UNL1       -0.2862
     97 O          25.3240    3.1730  126.7000 O.2     1  UNL1       -0.2487
     98 C          26.5360    3.1660  124.5770 C.3     1  UNL1        0.1233
     99 C          26.2510    2.5630  123.1940 C.3     1  UNL1       -0.0199
    100 C          27.6210    1.0240  124.3700 C.3     1  UNL1        0.0182
    101 C          26.6240    0.2720  122.1540 C.3     1  UNL1       -0.0609
    102 C          26.4190    1.0640  123.4330 C.3     1  UNL1       -0.0258
@<TRIPOS>BOND
     1    50   101    1
     2    46   101    1
     3   101    47    1
     4   101   102    1
     5    44    99    1
     6    48    99    1
     7    25    81    1
     8    26    82    1
     9    27    83    1
    10    99   102    1
    11    99    98    1
    12   102    42    1
    13   102   100    1
    14    49   100    1
    15    82    81    1
    16    82    83    1
    17    82    29    1
    18    81    28    1
    19    81    78    1
    20    83    23    1
    21    83    77    1
    22   100    45    1
    23   100    96    1
    24    43    98    1
    25    98    96    1
    26    98    95    1
    27    24    78    1
    28    76    95    1
    29    76    75    1
    30    39    86    1
    31    38    87    1
    32    77    78    1
    33    77    73   am
    34    19    75    1
    35    74    73    2
    36    78    79    1
    37    96    92   am
    38    73    72    1
    39    41    87    1
    40    95    97    2
    41    75    22    1
    42    75    72    1
    43    89    88    2
    44    87    86    1
    45    87    40    1
    46    86    88    1
    47    86    84    1
    48    88    90   am
    49    92    93    2
    50    92    91    1
    51    72    21    1
    52    72    71    1
    53    79    84   am
    54    79    80    2
    55    10    70    1
    56    84    85    1
    57    90    91    1
    58    90    31    1
    59    20    71    1
    60    91    32    1
    61    91    94    1
    62    16    68    1
    63    70    68   ar
    64    70    69   ar
    65    71    62   am
    66    17    69    1
    67    68    66   ar
    68    69    67   ar
    69    85     8    1
    70    85     9    1
    71    85     7    1
    72    94    30    1
    73    94    34    1
    74    94    33    1
    75    62    63    2
    76    62    61    1
    77    66    14    1
    78    66    65   ar
    79    67    65   ar
    80    67    15    1
    81    12    61    1
    82    65    64    1
    83    61    64    1
    84    61    60    1
    85    64    13    1
    86    64    18    1
    87    60    11    1
    88    60    51   am
    89    59    51    2
    90    51    52    1
    91    52     1    1
    92    52    53    2
    93     2    53    1
    94    53    54    1
    95    54     3    1
    96    54    55    2
    97     4    55    1
    98    55    56    1
    99    56     5    1
   100    56    57    2
   101     6    57    1
   102    57    58    1
   103    36    58    1
   104    58    35    1
   105    58    37    1
