@<TRIPOS>MOLECULE
129.08360
 102 105 0 0 0
SMALL
GASTEIGER

@<TRIPOS>ATOM
      1 H          33.3050   -2.6490  115.1950 H       1  UNL1        0.0669
      2 H          34.3920   -1.4300  117.8040 H       1  UNL1        0.0619
      3 H          35.4030   -3.7530  115.9870 H       1  UNL1        0.0618
      4 H          36.3760   -2.5740  118.6560 H       1  UNL1        0.0617
      5 H          37.4080   -4.8860  116.8390 H       1  UNL1        0.0614
      6 H          38.3430   -3.7400  119.5350 H       1  UNL1        0.0569
      7 H          23.8990   -0.2620  124.0440 H       1  UNL1        0.0429
      8 H          24.8250    1.0900  124.7200 H       1  UNL1        0.0429
      9 H          25.5360   -0.5510  124.6560 H       1  UNL1        0.0429
     10 H          25.2610    3.4120  114.6270 H       1  UNL1        0.0618
     11 H          31.3200   -1.7890  114.6280 H       1  UNL1        0.1498
     12 H          30.2970    0.6190  116.0740 H       1  UNL1        0.0598
     13 H          29.2800   -0.7070  113.4790 H       1  UNL1        0.0336
     14 H          26.8910   -0.4850  113.8720 H       1  UNL1        0.0620
     15 H          29.5170    2.8650  114.6040 H       1  UNL1        0.0620
     16 H          24.9390    1.0030  114.1290 H       1  UNL1        0.0618
     17 H          27.5510    4.3340  114.8640 H       1  UNL1        0.0618
     18 H          30.3260    0.6910  113.5170 H       1  UNL1        0.0336
     19 H          29.1450   -3.3480  118.3950 H       1  UNL1        0.0721
     20 H          29.2060    0.0010  117.8600 H       1  UNL1        0.1496
     21 H          27.1440   -2.0970  117.6290 H       1  UNL1        0.0629
     22 H          27.9510   -3.2620  119.6890 H       1  UNL1        0.0721
     23 H          25.1350   -2.5910  118.7830 H       1  UNL1        0.0465
     24 H          25.5350    1.1940  120.3000 H       1  UNL1        0.0597
     25 H          23.6320    0.9640  118.9390 H       1  UNL1        0.0288
     26 H          22.7600   -1.1990  118.3470 H       1  UNL1        0.0281
     27 H          25.0140   -1.2750  117.5860 H       1  UNL1        0.0465
     28 H          22.9140    0.4550  120.4810 H       1  UNL1        0.0288
     29 H          23.1880   -1.8850  119.9150 H       1  UNL1        0.0281
     30 H          28.2110   -3.0940  124.2880 H       1  UNL1        0.0252
     31 H          27.5380   -1.0160  123.0270 H       1  UNL1        0.1495
     32 H          28.8740   -0.3890  125.5580 H       1  UNL1        0.0592
     33 H          27.1910   -2.2150  125.4360 H       1  UNL1        0.0252
     34 H          28.7710   -2.8310  125.9420 H       1  UNL1        0.0252
     35 H          39.3550   -6.0360  117.7030 H       1  UNL1        0.0272
     36 H          39.3360   -6.0830  119.4750 H       1  UNL1        0.0272
     37 H          40.3970   -4.9400  118.6290 H       1  UNL1        0.0272
     38 H          27.0320    3.5060  122.7850 H       1  UNL1        0.0252
     39 H          27.0430    1.3200  121.7390 H       1  UNL1        0.0594
     40 H          25.8670    2.9920  124.0050 H       1  UNL1        0.0252
     41 H          25.3710    3.1100  122.3080 H       1  UNL1        0.0252
     42 H          32.2960   -2.6360  121.0000 H       1  UNL1        0.0314
     43 H          29.8460    0.0840  122.0190 H       1  UNL1        0.0616
     44 H          32.0610    0.3950  121.3420 H       1  UNL1        0.0292
     45 H          32.4280   -2.8040  123.3730 H       1  UNL1        0.0467
     46 H          34.3850   -0.4870  121.6800 H       1  UNL1        0.0233
     47 H          34.6850   -2.2280  121.5540 H       1  UNL1        0.0233
     48 H          31.5070   -0.5540  119.9630 H       1  UNL1        0.0292
     49 H          32.9160   -1.1050  123.5710 H       1  UNL1        0.0467
     50 H          34.2120   -1.3020  120.1200 H       1  UNL1        0.0233
     51 C          32.3040   -0.9880  116.2650 C.2     1  UNL1        0.2375
     52 C          33.3700   -1.9990  116.0570 C.2     1  UNL1        0.0001
     53 C          34.3640   -2.1040  116.9500 C.2     1  UNL1       -0.0569
     54 C          35.4140   -3.0930  116.8520 C.2     1  UNL1       -0.0616
     55 C          36.3670   -3.2290  117.7860 C.2     1  UNL1       -0.0621
     56 C          37.4040   -4.2320  117.7090 C.2     1  UNL1       -0.0659
     57 C          38.3390   -4.3860  118.6590 C.2     1  UNL1       -0.0871
     58 C          39.4140   -5.4220  118.6070 C.3     1  UNL1       -0.0465
     59 O          32.2890   -0.2160  117.2150 O.2     1  UNL1       -0.2708
     60 N          31.3240   -1.0390  115.3070 N.am    1  UNL1       -0.3002
     61 C          30.0960   -0.2600  115.4500 C.3     1  UNL1        0.1036
     62 C          29.1030   -1.1930  116.1630 C.2     1  UNL1        0.2344
     63 O          28.7070   -2.2460  115.6630 O.2     1  UNL1       -0.2738
     64 C          29.5450    0.1690  114.0860 C.3     1  UNL1       -0.0006
     65 C          28.3480    1.0820  114.2130 C.ar    1  UNL1       -0.0451
     66 C          27.0490    0.5710  114.0850 C.ar    1  UNL1       -0.0585
     67 C          28.5190    2.4440  114.4970 C.ar    1  UNL1       -0.0585
     68 C          25.9420    1.4070  114.2340 C.ar    1  UNL1       -0.0615
     69 C          27.4100    3.2780  114.6460 C.ar    1  UNL1       -0.0615
     70 C          26.1230    2.7600  114.5140 C.ar    1  UNL1       -0.0617
     71 N          28.7620   -0.8090  117.4350 N.am    1  UNL1       -0.2997
     72 C          27.8660   -1.5980  118.2790 C.3     1  UNL1        0.1340
     73 C          27.1770   -0.6110  119.2360 C.2     1  UNL1        0.2399
     74 O          27.8400    0.2540  119.8190 O.2     1  UNL1       -0.2734
     75 C          28.6350   -2.6600  119.0790 C.3     1  UNL1        0.1193
     76 O          29.6670   -2.0400  119.8760 O.3     1  UNL1       -0.4610
     77 N          25.8190   -0.7080  119.4160 N.am    1  UNL1       -0.2883
     78 C          25.1060    0.1900  120.3250 C.3     1  UNL1        0.1025
     79 C          25.0500   -0.3690  121.7710 C.2     1  UNL1        0.2365
     80 O          24.5710   -1.4850  121.9990 O.2     1  UNL1       -0.2735
     81 C          23.6870    0.2190  119.7430 C.3     1  UNL1       -0.0243
     82 C          23.5080   -1.1750  119.1450 C.3     1  UNL1       -0.0350
     83 C          24.8990   -1.5320  118.6450 C.3     1  UNL1        0.0156
     84 N          25.4510    0.4560  122.8150 N.am    1  UNL1       -0.2917
     85 C          24.9010    0.1700  124.1360 C.3     1  UNL1        0.0040
     86 C          26.6110    1.3780  122.7360 C.3     1  UNL1        0.0991
     87 C          26.1940    2.8260  122.9730 C.3     1  UNL1       -0.0379
     88 C          27.7590    0.9440  123.6870 C.2     1  UNL1        0.2339
     89 O          28.4580    1.7450  124.3030 O.2     1  UNL1       -0.2738
     90 N          28.0180   -0.4100  123.6920 N.am    1  UNL1       -0.3027
     91 C          28.8720   -1.0500  124.6800 C.3     1  UNL1        0.0968
     92 C          30.3690   -1.3290  124.4000 C.2     1  UNL1        0.2363
     93 O          31.0820   -1.6630  125.3610 O.2     1  UNL1       -0.2736
     94 C          28.2250   -2.3710  125.1110 C.3     1  UNL1       -0.0381
     95 C          29.3890   -1.8380  121.1930 C.2     1  UNL1        0.3279
     96 N          30.9020   -1.3780  123.1320 N.am    1  UNL1       -0.2862
     97 O          28.4100   -2.3150  121.7590 O.2     1  UNL1       -0.2487
     98 C          30.3760   -0.8580  121.8610 C.3     1  UNL1        0.1233
     99 C          31.6480   -0.5800  121.0470 C.3     1  UNL1       -0.0199
    100 C          32.2920   -1.7890  122.9830 C.3     1  UNL1        0.0182
    101 C          34.0500   -1.4110  121.1950 C.3     1  UNL1       -0.0609
    102 C          32.5890   -1.6990  121.4910 C.3     1  UNL1       -0.0258
@<TRIPOS>BOND
     1    13    64    1
     2    18    64    1
     3    14    66    1
     4    66    65   ar
     5    66    68   ar
     6    64    65    1
     7    64    61    1
     8    16    68    1
     9    65    67   ar
    10    68    70   ar
    11    67    15    1
    12    67    69   ar
    13    70    10    1
    14    70    69   ar
    15    11    60    1
    16    69    17    1
    17     1    52    1
    18    60    61    1
    19    60    51   am
    20    61    12    1
    21    61    62    1
    22    63    62    2
    23     3    54    1
    24    52    51    1
    25    52    53    2
    26    62    71   am
    27    51    59    2
    28     5    56    1
    29    54    53    1
    30    54    55    2
    31    53     2    1
    32    71    20    1
    33    71    72    1
    34    27    83    1
    35    21    72    1
    36    35    58    1
    37    56    55    1
    38    56    57    2
    39    55     4    1
    40    72    75    1
    41    72    73    1
    42    26    82    1
    43    19    75    1
    44    58    37    1
    45    58    57    1
    46    58    36    1
    47    83    23    1
    48    83    82    1
    49    83    77    1
    50    57     6    1
    51    25    81    1
    52    75    22    1
    53    75    76    1
    54    82    81    1
    55    82    29    1
    56    73    77   am
    57    73    74    2
    58    77    78    1
    59    81    78    1
    60    81    28    1
    61    76    95    1
    62    48    99    1
    63    50   101    1
    64    24    78    1
    65    78    79    1
    66    42   102    1
    67    99    44    1
    68    99   102    1
    69    99    98    1
    70    95    97    2
    71    95    98    1
    72   101   102    1
    73   101    47    1
    74   101    46    1
    75   102   100    1
    76    39    86    1
    77    79    80    2
    78    79    84   am
    79    98    43    1
    80    98    96    1
    81    41    87    1
    82    86    84    1
    83    86    87    1
    84    86    88    1
    85    38    87    1
    86    84    85    1
    87    87    40    1
    88   100    96    1
    89   100    45    1
    90   100    49    1
    91    31    90    1
    92    96    92   am
    93    88    90   am
    94    88    89    2
    95    90    91    1
    96     7    85    1
    97    85     9    1
    98    85     8    1
    99    30    94    1
   100    92    91    1
   101    92    93    2
   102    91    94    1
   103    91    32    1
   104    94    33    1
   105    94    34    1
