@<TRIPOS>MOLECULE
111.34120
 102 105 0 0 0
SMALL
GASTEIGER

@<TRIPOS>ATOM
      1 H          33.3120    3.6990  116.6510 H       1  UNL1        0.0669
      2 H          32.3590    4.8730  119.3390 H       1  UNL1        0.0619
      3 H          35.1240    3.8210  118.3470 H       1  UNL1        0.0618
      4 H          34.1140    4.8760  121.0540 H       1  UNL1        0.0617
      5 H          36.8830    3.8500  120.0560 H       1  UNL1        0.0614
      6 H          35.8650    4.8730  122.7710 H       1  UNL1        0.0569
      7 H          27.0540    0.1000  112.7770 H       1  UNL1        0.0429
      8 H          26.6700   -1.6050  112.4800 H       1  UNL1        0.0429
      9 H          28.3560   -1.0980  112.7630 H       1  UNL1        0.0429
     10 H          24.7180    5.6620  111.9800 H       1  UNL1        0.0618
     11 H          31.5700    3.1370  115.3650 H       1  UNL1        0.1498
     12 H          29.0160    4.6830  115.7390 H       1  UNL1        0.0598
     13 H          29.8510    3.0940  113.2290 H       1  UNL1        0.0336
     14 H          27.3380    2.4880  113.1730 H       1  UNL1        0.0620
     15 H          28.7410    6.5740  113.1630 H       1  UNL1        0.0620
     16 H          25.1370    3.2490  112.3960 H       1  UNL1        0.0618
     17 H          26.5270    7.3160  112.3660 H       1  UNL1        0.0618
     18 H          30.3130    4.7620  113.4490 H       1  UNL1        0.0336
     19 H          27.9800    0.2450  119.4460 H       1  UNL1        0.0721
     20 H          28.2650    3.4090  117.4470 H       1  UNL1        0.1496
     21 H          27.9540    0.5120  116.8360 H       1  UNL1        0.0629
     22 H          28.7090    1.8490  119.4520 H       1  UNL1        0.0721
     23 H          23.6310    1.5870  117.2850 H       1  UNL1        0.0465
     24 H          26.6390   -1.1580  117.1480 H       1  UNL1        0.0597
     25 H          24.5570   -2.1410  117.6130 H       1  UNL1        0.0288
     26 H          22.5070   -0.9300  117.1770 H       1  UNL1        0.0281
     27 H          23.8370    0.4510  118.6390 H       1  UNL1        0.0465
     28 H          24.4410   -2.2470  115.8450 H       1  UNL1        0.0288
     29 H          23.1920   -0.1730  115.7310 H       1  UNL1        0.0281
     30 H          31.0670    0.5900  113.1930 H       1  UNL1        0.0252
     31 H          29.3200   -0.2280  115.0370 H       1  UNL1        0.1495
     32 H          31.8910   -1.7690  114.9530 H       1  UNL1        0.0592
     33 H          31.2110   -1.0950  112.6760 H       1  UNL1        0.0252
     34 H          32.6500   -0.2010  113.1980 H       1  UNL1        0.0252
     35 H          38.6160    3.8540  121.7470 H       1  UNL1        0.0272
     36 H          37.9460    3.5260  123.3560 H       1  UNL1        0.0272
     37 H          38.3880    5.1830  122.8980 H       1  UNL1        0.0272
     38 H          27.6740   -4.5360  114.9520 H       1  UNL1        0.0252
     39 H          27.6230   -2.4220  116.1090 H       1  UNL1        0.0594
     40 H          27.5230   -3.7540  113.3780 H       1  UNL1        0.0252
     41 H          26.1700   -3.7030  114.5220 H       1  UNL1        0.0252
     42 H          31.9860    0.2360  120.0560 H       1  UNL1        0.0314
     43 H          31.2450   -2.1890  117.1290 H       1  UNL1        0.0616
     44 H          32.9970   -2.3230  118.7400 H       1  UNL1        0.0292
     45 H          32.5850    1.4980  118.2040 H       1  UNL1        0.0467
     46 H          34.8080   -0.9000  119.6800 H       1  UNL1        0.0233
     47 H          34.3940    0.6110  120.5060 H       1  UNL1        0.0233
     48 H          31.6130   -2.1290  119.8350 H       1  UNL1        0.0292
     49 H          33.9370    0.4410  117.7450 H       1  UNL1        0.0467
     50 H          33.8580   -0.9410  121.1750 H       1  UNL1        0.0233
     51 C          31.2310    4.3430  117.0060 C.2     1  UNL1        0.2375
     52 C          32.6470    4.1340  117.3880 C.2     1  UNL1        0.0001
     53 C          33.0620    4.4470  118.6240 C.2     1  UNL1       -0.0569
     54 C          34.4190    4.2220  119.0730 C.2     1  UNL1       -0.0616
     55 C          34.8190    4.4770  120.3270 C.2     1  UNL1       -0.0621
     56 C          36.1710    4.2400  120.7810 C.2     1  UNL1       -0.0659
     57 C          36.5680    4.4810  122.0390 C.2     1  UNL1       -0.0871
     58 C          37.9590    4.2450  122.5310 C.3     1  UNL1       -0.0465
     59 O          30.4220    4.9150  117.7260 O.2     1  UNL1       -0.2708
     60 N          30.9210    3.8010  115.7860 N.am    1  UNL1       -0.3002
     61 C          29.5540    3.8550  115.2630 C.3     1  UNL1        0.1036
     62 C          28.9170    2.5220  115.6880 C.2     1  UNL1        0.2344
     63 O          29.0500    1.4810  115.0420 O.2     1  UNL1       -0.2738
     64 C          29.5560    4.0200  113.7380 C.3     1  UNL1       -0.0006
     65 C          28.2120    4.4730  113.2160 C.ar    1  UNL1       -0.0451
     66 C          27.1830    3.5500  112.9930 C.ar    1  UNL1       -0.0585
     67 C          27.9630    5.8340  112.9870 C.ar    1  UNL1       -0.0585
     68 C          25.9300    3.9770  112.5500 C.ar    1  UNL1       -0.0615
     69 C          26.7120    6.2590  112.5390 C.ar    1  UNL1       -0.0615
     70 C          25.6950    5.3310  112.3210 C.ar    1  UNL1       -0.0617
     71 N          28.3390    2.5310  116.9360 N.am    1  UNL1       -0.2997
     72 C          27.7980    1.3210  117.5450 C.3     1  UNL1        0.1340
     73 C          26.3030    1.4920  117.8340 C.2     1  UNL1        0.2399
     74 O          25.8980    2.4550  118.4900 O.2     1  UNL1       -0.2734
     75 C          28.5390    0.9610  118.8320 C.3     1  UNL1        0.1193
     76 O          29.8360    0.4290  118.4890 O.3     1  UNL1       -0.4610
     77 N          25.4480    0.5270  117.3430 N.am    1  UNL1       -0.2883
     78 C          25.8150   -0.6940  116.6120 C.3     1  UNL1        0.1025
     79 C          26.1720   -0.3910  115.1290 C.2     1  UNL1        0.2365
     80 O          25.5820    0.5160  114.5320 O.2     1  UNL1       -0.2735
     81 C          24.5540   -1.5560  116.6850 C.3     1  UNL1       -0.0243
     82 C          23.4260   -0.5280  116.7410 C.3     1  UNL1       -0.0350
     83 C          24.0170    0.6030  117.5690 C.3     1  UNL1        0.0156
     84 N          27.1150   -1.1830  114.4720 N.am    1  UNL1       -0.2917
     85 C          27.3150   -0.9260  113.0460 C.3     1  UNL1        0.0040
     86 C          27.8080   -2.3660  115.0380 C.3     1  UNL1        0.0991
     87 C          27.2610   -3.6620  114.4370 C.3     1  UNL1       -0.0379
     88 C          29.3560   -2.3090  114.9160 C.2     1  UNL1        0.2339
     89 O          30.0470   -3.3260  114.8810 O.2     1  UNL1       -0.2738
     90 N          29.9220   -1.0570  115.0320 N.am    1  UNL1       -0.3027
     91 C          31.3510   -0.8230  114.8290 C.3     1  UNL1        0.0968
     92 C          31.9710    0.1760  115.8460 C.2     1  UNL1        0.2363
     93 O          32.4600    1.2530  115.4850 O.2     1  UNL1       -0.2736
     94 C          31.5840   -0.3560  113.3930 C.3     1  UNL1       -0.0381
     95 C          29.9080   -0.9080  118.2300 C.2     1  UNL1        0.3279
     96 N          32.0600   -0.2340  117.1650 N.am    1  UNL1       -0.2862
     97 O          28.9790   -1.6910  118.3960 O.2     1  UNL1       -0.2487
     98 C          31.3270   -1.3310  117.8000 C.3     1  UNL1        0.1233
     99 C          32.1780   -1.6520  119.0270 C.3     1  UNL1       -0.0199
    100 C          32.9080    0.4590  118.1200 C.3     1  UNL1        0.0182
    101 C          34.0230   -0.3860  120.2460 C.3     1  UNL1       -0.0609
    102 C          32.7350   -0.2850  119.4460 C.3     1  UNL1       -0.0258
@<TRIPOS>BOND
     1    10    70    1
     2    70    69   ar
     3    70    68   ar
     4    17    69    1
     5    16    68    1
     6     8    85    1
     7    69    67   ar
     8    68    66   ar
     9    33    94    1
    10     9    85    1
    11     7    85    1
    12    67    15    1
    13    67    65   ar
    14    66    14    1
    15    66    65   ar
    16    85    84    1
    17    30    94    1
    18    34    94    1
    19    65    64    1
    20    13    64    1
    21    40    87    1
    22    94    91    1
    23    18    64    1
    24    64    61    1
    25    87    41    1
    26    87    38    1
    27    87    86    1
    28    84    86    1
    29    84    79   am
    30    80    79    2
    31    91    32    1
    32    91    90    1
    33    91    92    1
    34    89    88    2
    35    88    90   am
    36    88    86    1
    37    90    31    1
    38    86    39    1
    39    63    62    2
    40    79    78    1
    41    61    62    1
    42    61    12    1
    43    61    60    1
    44    11    60    1
    45    93    92    2
    46    62    71   am
    47    29    82    1
    48    60    51   am
    49    28    81    1
    50    92    96   am
    51    78    81    1
    52    78    24    1
    53    78    77    1
    54     1    52    1
    55    81    82    1
    56    81    25    1
    57    82    26    1
    58    82    83    1
    59    21    72    1
    60    71    20    1
    61    71    72    1
    62    51    52    1
    63    51    59    2
    64    43    98    1
    65    96    98    1
    66    96   100    1
    67    23    83    1
    68    77    83    1
    69    77    73   am
    70    52    53    2
    71    72    73    1
    72    72    75    1
    73    83    27    1
    74    49   100    1
    75    98    95    1
    76    98    99    1
    77    73    74    2
    78   100    45    1
    79   100   102    1
    80    95    97    2
    81    95    76    1
    82     3    54    1
    83    76    75    1
    84    53    54    1
    85    53     2    1
    86    44    99    1
    87    75    19    1
    88    75    22    1
    89    99   102    1
    90    99    48    1
    91    54    55    2
    92   102    42    1
    93   102   101    1
    94    46   101    1
    95     5    56    1
    96   101    47    1
    97   101    50    1
    98    55    56    1
    99    55     4    1
   100    56    57    2
   101    35    58    1
   102    57    58    1
   103    57     6    1
   104    58    37    1
   105    58    36    1
