@<TRIPOS>MOLECULE
129.34134
 102 105 0 0 0
SMALL
GASTEIGER

@<TRIPOS>ATOM
      1 H          35.1320   -2.7080  120.4670 H       1  UNL1        0.0669
      2 H          35.6720    0.1050  121.6090 H       1  UNL1        0.0619
      3 H          37.2930   -2.5530  121.7430 H       1  UNL1        0.0618
      4 H          37.7340    0.2690  122.8860 H       1  UNL1        0.0617
      5 H          39.3890   -2.3670  123.0200 H       1  UNL1        0.0614
      6 H          39.8060    0.4530  124.1720 H       1  UNL1        0.0569
      7 H          27.9160    2.8440  124.6970 H       1  UNL1        0.0429
      8 H          27.6900    4.3270  123.7500 H       1  UNL1        0.0429
      9 H          29.3330    3.7060  124.0830 H       1  UNL1        0.0429
     10 H          34.3360   -0.7470  113.5080 H       1  UNL1        0.0618
     11 H          33.1160   -2.8320  119.4670 H       1  UNL1        0.1498
     12 H          31.4920   -0.3320  119.1150 H       1  UNL1        0.0598
     13 H          30.1770   -1.6890  117.4780 H       1  UNL1        0.0336
     14 H          32.6080    0.3790  117.2620 H       1  UNL1        0.0620
     15 H          31.7870   -3.5110  115.5650 H       1  UNL1        0.0620
     16 H          34.0200    0.9080  115.3280 H       1  UNL1        0.0618
     17 H          33.2110   -2.9540  113.6340 H       1  UNL1        0.0618
     18 H          31.1780   -3.0950  117.8050 H       1  UNL1        0.0336
     19 H          29.6010   -1.2940  124.5550 H       1  UNL1        0.0721
     20 H          30.7020   -0.1960  121.2110 H       1  UNL1        0.1496
     21 H          30.0420   -2.6210  122.6010 H       1  UNL1        0.0629
     22 H          29.3750    0.1710  123.5970 H       1  UNL1        0.0721
     23 H          25.3970   -1.4870  122.3040 H       1  UNL1        0.0465
     24 H          28.5940    0.6100  120.8640 H       1  UNL1        0.0597
     25 H          26.7600    0.5840  119.3490 H       1  UNL1        0.0288
     26 H          24.5430   -0.0040  120.1120 H       1  UNL1        0.0281
     27 H          25.8700   -1.9190  120.6450 H       1  UNL1        0.0465
     28 H          26.3110    2.0150  120.3000 H       1  UNL1        0.0288
     29 H          24.8280    0.7210  121.6990 H       1  UNL1        0.0281
     30 H          33.5150    5.0710  121.3460 H       1  UNL1        0.0252
     31 H          31.1860    4.3730  122.5720 H       1  UNL1        0.1495
     32 H          32.9810    2.1090  121.8580 H       1  UNL1        0.0592
     33 H          33.2860    3.8150  120.1250 H       1  UNL1        0.0252
     34 H          34.7070    3.7720  121.1890 H       1  UNL1        0.0252
     35 H          41.4500   -2.1810  124.2780 H       1  UNL1        0.0272
     36 H          41.2770   -1.0380  125.6230 H       1  UNL1        0.0272
     37 H          42.1410   -0.5530  124.1510 H       1  UNL1        0.0272
     38 H          29.5120    5.0580  120.4140 H       1  UNL1        0.0252
     39 H          28.6430    2.7840  120.5440 H       1  UNL1        0.0594
     40 H          29.2870    5.2930  122.1480 H       1  UNL1        0.0252
     41 H          27.8840    5.0150  121.1160 H       1  UNL1        0.0252
     42 H          32.9420    1.0530  126.9040 H       1  UNL1        0.0314
     43 H          33.5250    0.6060  123.1440 H       1  UNL1        0.0616
     44 H          34.9720   -0.0620  124.9090 H       1  UNL1        0.0292
     45 H          33.5500    3.2550  126.2820 H       1  UNL1        0.0467
     46 H          36.0030    0.8340  126.9990 H       1  UNL1        0.0233
     47 H          34.9710    1.5280  128.2610 H       1  UNL1        0.0233
     48 H          33.4800   -0.8330  125.4820 H       1  UNL1        0.0292
     49 H          35.1390    2.7630  125.6530 H       1  UNL1        0.0467
     50 H          34.8600   -0.1980  127.8720 H       1  UNL1        0.0233
     51 C          33.7460   -1.0000  120.2060 C.2     1  UNL1        0.2375
     52 C          34.9810   -1.6610  120.6940 C.2     1  UNL1        0.0001
     53 C          35.8640   -0.9490  121.4100 C.2     1  UNL1       -0.0569
     54 C          37.0840   -1.5050  121.9490 C.2     1  UNL1       -0.0616
     55 C          37.9430   -0.7790  122.6810 C.2     1  UNL1       -0.0621
     56 C          39.1650   -1.3220  123.2260 C.2     1  UNL1       -0.0659
     57 C          40.0180   -0.5930  123.9610 C.2     1  UNL1       -0.0871
     58 C          41.2910   -1.1280  124.5320 C.3     1  UNL1       -0.0465
     59 O          33.5140    0.1850  120.4080 O.2     1  UNL1       -0.2708
     60 N          32.9010   -1.8460  119.5440 N.am    1  UNL1       -0.3002
     61 C          31.5640   -1.4250  119.1160 C.3     1  UNL1        0.1036
     62 C          30.6040   -1.9940  120.1750 C.2     1  UNL1        0.2344
     63 O          30.2570   -3.1740  120.1720 O.2     1  UNL1       -0.2738
     64 C          31.1980   -1.9990  117.7370 C.3     1  UNL1       -0.0006
     65 C          32.1020   -1.6220  116.5810 C.ar    1  UNL1       -0.0451
     66 C          32.7280   -0.3720  116.4850 C.ar    1  UNL1       -0.0585
     67 C          32.2770   -2.5400  115.5320 C.ar    1  UNL1       -0.0585
     68 C          33.5320   -0.0620  115.3850 C.ar    1  UNL1       -0.0615
     69 C          33.0810   -2.2290  114.4340 C.ar    1  UNL1       -0.0615
     70 C          33.7110   -0.9900  114.3620 C.ar    1  UNL1       -0.0617
     71 N          30.3020   -1.1390  121.2090 N.am    1  UNL1       -0.2997
     72 C          29.6210   -1.6240  122.4110 C.3     1  UNL1        0.1340
     73 C          28.0990   -1.8200  122.2320 C.2     1  UNL1        0.2399
     74 O          27.5800   -2.8520  122.6790 O.2     1  UNL1       -0.2734
     75 C          29.9180   -0.7700  123.6460 C.3     1  UNL1        0.1193
     76 O          31.3370   -0.5260  123.7330 O.3     1  UNL1       -0.4610
     77 N          27.3030   -0.8340  121.6810 N.am    1  UNL1       -0.2883
     78 C          27.6200    0.5600  121.3350 C.3     1  UNL1        0.1025
     79 C          27.5490    1.4840  122.5860 C.2     1  UNL1        0.2365
     80 O          26.8470    1.1570  123.5500 O.2     1  UNL1       -0.2735
     81 C          26.5070    0.9410  120.3550 C.3     1  UNL1       -0.0243
     82 C          25.3020    0.1680  120.8800 C.3     1  UNL1       -0.0350
     83 C          25.9040   -1.1280  121.4030 C.3     1  UNL1        0.0156
     84 N          28.2610    2.6840  122.5970 N.am    1  UNL1       -0.2917
     85 C          28.3010    3.4260  123.8550 C.3     1  UNL1        0.0040
     86 C          29.0450    3.2170  121.4660 C.3     1  UNL1        0.0991
     87 C          28.9290    4.7300  121.2810 C.3     1  UNL1       -0.0379
     88 C          30.5000    2.6970  121.5370 C.2     1  UNL1        0.2339
     89 O          30.7640    1.5450  121.1850 O.2     1  UNL1       -0.2738
     90 N          31.4450    3.5130  122.1040 N.am    1  UNL1       -0.3027
     91 C          32.8600    3.1490  122.1460 C.3     1  UNL1        0.0968
     92 C          33.4010    3.3870  123.5700 C.2     1  UNL1        0.2363
     93 O          33.6070    4.5360  123.9730 O.2     1  UNL1       -0.2736
     94 C          33.6370    4.0000  121.1460 C.3     1  UNL1       -0.0381
     95 C          31.6830    0.6820  124.2610 C.2     1  UNL1        0.3279
     96 N          33.5520    2.3010  124.4070 N.am    1  UNL1       -0.2862
     97 O          30.9000    1.4780  124.7660 O.2     1  UNL1       -0.2487
     98 C          33.1980    0.8990  124.1430 C.3     1  UNL1        0.1233
     99 C          33.9410    0.1280  125.2320 C.3     1  UNL1       -0.0199
    100 C          34.0880    2.4650  125.7490 C.3     1  UNL1        0.0182
    101 C          35.0030    0.7990  127.4440 C.3     1  UNL1       -0.0609
    102 C          33.9250    1.1000  126.4170 C.3     1  UNL1       -0.0258
@<TRIPOS>BOND
     1    10    70    1
     2    17    69    1
     3    70    69   ar
     4    70    68   ar
     5    69    67   ar
     6    16    68    1
     7    68    66   ar
     8    67    15    1
     9    67    65   ar
    10    66    65   ar
    11    66    14    1
    12    65    64    1
    13    13    64    1
    14    64    18    1
    15    64    61    1
    16    12    61    1
    17    61    60    1
    18    61    62    1
    19    25    81    1
    20    11    60    1
    21    60    51   am
    22    26    82    1
    23    33    94    1
    24    63    62    2
    25    62    71   am
    26    51    59    2
    27    51    52    1
    28    28    81    1
    29    81    82    1
    30    81    78    1
    31    38    87    1
    32     1    52    1
    33    39    86    1
    34    27    83    1
    35    52    53    2
    36    24    78    1
    37    82    83    1
    38    82    29    1
    39    41    87    1
    40    94    34    1
    41    94    30    1
    42    94    91    1
    43    89    88    2
    44    71    20    1
    45    71    72    1
    46    87    86    1
    47    87    40    1
    48    78    77    1
    49    78    79    1
    50    83    77    1
    51    83    23    1
    52    53     2    1
    53    53    54    1
    54    86    88    1
    55    86    84    1
    56    88    90   am
    57    77    73   am
    58     3    54    1
    59    32    91    1
    60    54    55    2
    61    90    91    1
    62    90    31    1
    63    91    92    1
    64    73    72    1
    65    73    74    2
    66    72    21    1
    67    72    75    1
    68    79    84   am
    69    79    80    2
    70    84    85    1
    71    55     4    1
    72    55    56    1
    73     5    56    1
    74    43    98    1
    75    56    57    2
    76    92    93    2
    77    92    96   am
    78    22    75    1
    79    75    76    1
    80    75    19    1
    81    76    95    1
    82     8    85    1
    83    85     9    1
    84    85     7    1
    85    57     6    1
    86    57    58    1
    87    98    95    1
    88    98    96    1
    89    98    99    1
    90    37    58    1
    91    95    97    2
    92    35    58    1
    93    96   100    1
    94    58    36    1
    95    44    99    1
    96    99    48    1
    97    99   102    1
    98    49   100    1
    99   100    45    1
   100   100   102    1
   101   102    42    1
   102   102   101    1
   103    46   101    1
   104   101    50    1
   105   101    47    1
