@<TRIPOS>MOLECULE
161.91639
 102 105 0 0 0
SMALL
GASTEIGER

@<TRIPOS>ATOM
      1 H          34.6890    2.6090  116.7230 H       1  UNL1        0.0669
      2 H          35.6880    3.4700  119.5070 H       1  UNL1        0.0619
      3 H          37.0610    1.9720  117.1420 H       1  UNL1        0.0618
      4 H          37.9850    2.7750  119.9630 H       1  UNL1        0.0617
      5 H          39.3420    1.2170  117.6310 H       1  UNL1        0.0614
      6 H          40.2600    2.0050  120.4570 H       1  UNL1        0.0569
      7 H          26.6420   -2.4070  124.5330 H       1  UNL1        0.0429
      8 H          28.3470   -2.9080  124.6990 H       1  UNL1        0.0429
      9 H          27.5660   -2.9350  123.1180 H       1  UNL1        0.0429
     10 H          25.4460    6.4050  118.1180 H       1  UNL1        0.0618
     11 H          32.6060    3.2700  116.3400 H       1  UNL1        0.1498
     12 H          30.9530    4.4060  118.5540 H       1  UNL1        0.0598
     13 H          30.1660    4.0080  115.5930 H       1  UNL1        0.0336
     14 H          27.8430    3.3810  116.2530 H       1  UNL1        0.0620
     15 H          29.6760    7.0100  117.7210 H       1  UNL1        0.0620
     16 H          25.6530    4.1880  117.0200 H       1  UNL1        0.0618
     17 H          27.4630    7.8080  118.4650 H       1  UNL1        0.0618
     18 H          30.8840    5.4930  116.1650 H       1  UNL1        0.0336
     19 H          30.5730   -0.4200  119.0250 H       1  UNL1        0.0721
     20 H          29.2350    3.1040  119.3210 H       1  UNL1        0.1496
     21 H          28.7690    0.4870  118.1540 H       1  UNL1        0.0629
     22 H          29.4940   -0.7050  120.3900 H       1  UNL1        0.0721
     23 H          25.1560    1.2220  120.9770 H       1  UNL1        0.0465
     24 H          29.0670    1.2600  122.1080 H       1  UNL1        0.0597
     25 H          27.7830    3.1340  122.9060 H       1  UNL1        0.0288
     26 H          25.3680    2.9910  123.1330 H       1  UNL1        0.0281
     27 H          25.8020    2.8730  120.8050 H       1  UNL1        0.0465
     28 H          27.5560    2.0390  124.2440 H       1  UNL1        0.0288
     29 H          25.4300    1.2290  123.2990 H       1  UNL1        0.0281
     30 H          30.2220   -2.0910  122.9970 H       1  UNL1        0.0252
     31 H          31.1510   -1.6770  126.5820 H       1  UNL1        0.1495
     32 H          32.5100   -1.5760  124.9390 H       1  UNL1        0.0592
     33 H          30.8600   -3.3180  124.1100 H       1  UNL1        0.0252
     34 H          31.8870   -2.6020  122.8600 H       1  UNL1        0.0252
     35 H          41.5660    0.4080  118.1350 H       1  UNL1        0.0272
     36 H          41.7590    0.0470  119.8590 H       1  UNL1        0.0272
     37 H          42.4280    1.5470  119.1860 H       1  UNL1        0.0272
     38 H          27.3930    0.7470  126.7410 H       1  UNL1        0.0252
     39 H          28.8880    0.6710  124.8360 H       1  UNL1        0.0594
     40 H          26.7130   -0.8400  126.3660 H       1  UNL1        0.0252
     41 H          26.3720    0.5180  125.3110 H       1  UNL1        0.0252
     42 H          34.9810   -0.6740  121.2450 H       1  UNL1        0.0314
     43 H          32.3290    2.0530  122.1540 H       1  UNL1        0.0616
     44 H          34.6920    2.1790  122.2640 H       1  UNL1        0.0292
     45 H          33.9850   -1.5750  123.1420 H       1  UNL1        0.0467
     46 H          36.5300    0.9300  123.3490 H       1  UNL1        0.0233
     47 H          36.8980   -0.7170  122.8150 H       1  UNL1        0.0233
     48 H          34.5350    1.5720  120.6040 H       1  UNL1        0.0292
     49 H          34.5020   -0.2510  124.2060 H       1  UNL1        0.0467
     50 H          37.0460    0.6370  121.6810 H       1  UNL1        0.0233
     51 C          33.3830    3.5730  118.2270 C.2     1  UNL1        0.2375
     52 C          34.6710    3.0420  117.7150 C.2     1  UNL1        0.0001
     53 C          35.7500    3.0350  118.5110 C.2     1  UNL1       -0.0569
     54 C          37.0010    2.4180  118.1330 C.2     1  UNL1       -0.0616
     55 C          38.0480    2.3400  118.9670 C.2     1  UNL1       -0.0621
     56 C          39.2780    1.6660  118.6200 C.2     1  UNL1       -0.0659
     57 C          40.3140    1.5630  119.4650 C.2     1  UNL1       -0.0871
     58 C          41.5850    0.8500  119.1360 C.3     1  UNL1       -0.0465
     59 O          33.1980    3.8410  119.4080 O.2     1  UNL1       -0.2708
     60 N          32.4220    3.6640  117.2540 N.am    1  UNL1       -0.3002
     61 C          31.0140    3.8740  117.5970 C.3     1  UNL1        0.1036
     62 C          30.4330    2.4570  117.7540 C.2     1  UNL1        0.2344
     63 O          30.7570    1.5340  117.0050 O.2     1  UNL1       -0.2738
     64 C          30.2800    4.6340  116.4880 C.3     1  UNL1       -0.0006
     65 C          28.9260    5.1400  116.9230 C.ar    1  UNL1       -0.0451
     66 C          27.7790    4.3580  116.7310 C.ar    1  UNL1       -0.0585
     67 C          28.8020    6.3840  117.5570 C.ar    1  UNL1       -0.0585
     68 C          26.5330    4.8120  117.1640 C.ar    1  UNL1       -0.0615
     69 C          27.5520    6.8390  117.9810 C.ar    1  UNL1       -0.0615
     70 C          26.4190    6.0530  117.7860 C.ar    1  UNL1       -0.0617
     71 N          29.5360    2.3010  118.7810 N.am    1  UNL1       -0.2997
     72 C          28.9720    0.9880  119.1140 C.3     1  UNL1        0.1340
     73 C          27.5500    1.2010  119.6720 C.2     1  UNL1        0.2399
     74 O          26.6560    1.4290  118.8350 O.2     1  UNL1       -0.2734
     75 C          29.9810    0.0760  119.8040 C.3     1  UNL1        0.1193
     76 O          30.8500    0.8370  120.6670 O.3     1  UNL1       -0.4610
     77 N          27.2560    1.3890  121.0020 N.am    1  UNL1       -0.2883
     78 C          28.0070    1.0920  122.2580 C.3     1  UNL1        0.1025
     79 C          27.7670   -0.4280  122.6180 C.2     1  UNL1        0.2365
     80 O          27.3960   -1.1800  121.7000 O.2     1  UNL1       -0.2735
     81 C          27.3890    2.1450  123.1780 C.3     1  UNL1       -0.0243
     82 C          25.9100    2.0920  122.8260 C.3     1  UNL1       -0.0350
     83 C          25.9320    1.9140  121.3210 C.3     1  UNL1        0.0156
     84 N          28.0280   -0.9890  123.8720 N.am    1  UNL1       -0.2917
     85 C          27.6290   -2.3870  124.0620 C.3     1  UNL1        0.0040
     86 C          28.4200   -0.2710  125.1030 C.3     1  UNL1        0.0991
     87 C          27.1530    0.0600  125.9210 C.3     1  UNL1       -0.0379
     88 C          29.4130   -0.9990  126.0590 C.2     1  UNL1        0.2339
     89 O          29.0700   -1.3290  127.2030 O.2     1  UNL1       -0.2738
     90 N          30.7120   -1.2570  125.7710 N.am    1  UNL1       -0.3027
     91 C          31.5230   -1.2920  124.5550 C.3     1  UNL1        0.0968
     92 C          31.7020    0.0440  123.8130 C.2     1  UNL1        0.2363
     93 O          30.8150    0.8970  123.7810 O.2     1  UNL1       -0.2736
     94 C          31.0940   -2.3870  123.5840 C.3     1  UNL1       -0.0381
     95 C          32.1320    0.3860  120.7780 C.2     1  UNL1        0.3279
     96 N          32.8390    0.1880  123.0520 N.am    1  UNL1       -0.2862
     97 O          32.5850   -0.5890  120.1890 O.2     1  UNL1       -0.2487
     98 C          32.8500    1.1170  121.9240 C.3     1  UNL1        0.1233
     99 C          34.3300    1.3440  121.6510 C.3     1  UNL1       -0.0199
    100 C          34.1170   -0.4910  123.2100 C.3     1  UNL1        0.0182
    101 C          36.4520    0.2340  122.5070 C.3     1  UNL1       -0.0609
    102 C          35.0050    0.0350  122.0820 C.3     1  UNL1       -0.0258
@<TRIPOS>BOND
     1    13    64    1
     2    18    64    1
     3    14    66    1
     4    11    60    1
     5    64    65    1
     6    64    61    1
     7     1    52    1
     8    66    65   ar
     9    66    68   ar
    10    65    67   ar
    11    63    62    2
    12    16    68    1
    13     3    54    1
    14    68    70   ar
    15    60    61    1
    16    60    51   am
    17    67    15    1
    18    67    69   ar
    19    61    62    1
    20    61    12    1
    21     5    56    1
    22    52    51    1
    23    52    53    2
    24    62    71   am
    25    70    69   ar
    26    70    10    1
    27    69    17    1
    28    54    53    1
    29    54    55    2
    30    35    58    1
    31    21    72    1
    32    51    59    2
    33    53     2    1
    34    56    55    1
    35    56    57    2
    36    71    72    1
    37    71    20    1
    38    74    73    2
    39    55     4    1
    40    19    75    1
    41    72    73    1
    42    72    75    1
    43    58    37    1
    44    58    57    1
    45    58    36    1
    46    57     6    1
    47    73    77   am
    48    75    22    1
    49    75    76    1
    50    97    95    2
    51    48    99    1
    52    76    95    1
    53    95    98    1
    54    27    83    1
    55    23    83    1
    56    77    83    1
    57    77    78    1
    58    42   102    1
    59    83    82    1
    60    99    98    1
    61    99   102    1
    62    99    44    1
    63    50   101    1
    64    80    79    2
    65    98    43    1
    66    98    96    1
    67   102   101    1
    68   102   100    1
    69    24    78    1
    70    78    79    1
    71    78    81    1
    72   101    47    1
    73   101    46    1
    74    79    84   am
    75    82    26    1
    76    82    81    1
    77    82    29    1
    78    34    94    1
    79    25    81    1
    80    30    94    1
    81    96   100    1
    82    96    92   am
    83     9    85    1
    84    45   100    1
    85    81    28    1
    86   100    49    1
    87    94    33    1
    88    94    91    1
    89    93    92    2
    90    92    91    1
    91    84    85    1
    92    84    86    1
    93    85     7    1
    94    85     8    1
    95    91    32    1
    96    91    90    1
    97    39    86    1
    98    86    87    1
    99    86    88    1
   100    41    87    1
   101    90    88   am
   102    90    31    1
   103    87    40    1
   104    87    38    1
   105    88    89    2
