@<TRIPOS>MOLECULE
115.03355
 102 105 0 0 0
SMALL
GASTEIGER

@<TRIPOS>ATOM
      1 H          34.1580   -0.0020  117.4930 H       1  UNL1        0.0669
      2 H          34.4960    2.5240  115.7600 H       1  UNL1        0.0619
      3 H          36.5120    0.6290  117.2040 H       1  UNL1        0.0618
      4 H          36.8670    3.2240  115.5930 H       1  UNL1        0.0617
      5 H          38.8510    1.3030  117.0390 H       1  UNL1        0.0614
      6 H          39.2220    3.9360  115.4980 H       1  UNL1        0.0569
      7 H          28.9940   -3.8950  120.7300 H       1  UNL1        0.0429
      8 H          28.8680   -4.7830  122.2650 H       1  UNL1        0.0429
      9 H          30.3770   -3.9340  121.8380 H       1  UNL1        0.0429
     10 H          29.5590   -5.5020  116.7810 H       1  UNL1        0.0618
     11 H          32.0770   -0.1280  118.2930 H       1  UNL1        0.1498
     12 H          30.0360    1.7020  117.4850 H       1  UNL1        0.0598
     13 H          29.7590    0.2030  115.5350 H       1  UNL1        0.0336
     14 H          31.2080   -1.8040  115.3540 H       1  UNL1        0.0620
     15 H          27.7030   -1.7990  117.8790 H       1  UNL1        0.0620
     16 H          31.2680   -4.2700  115.4690 H       1  UNL1        0.0618
     17 H          27.7860   -4.2500  117.9900 H       1  UNL1        0.0618
     18 H          28.3560    0.2060  116.5730 H       1  UNL1        0.0336
     19 H          28.0610    2.1580  122.5420 H       1  UNL1        0.0721
     20 H          27.9840    1.4010  118.7690 H       1  UNL1        0.1496
     21 H          28.6060   -0.0480  121.2630 H       1  UNL1        0.0629
     22 H          28.3130    2.9730  121.0030 H       1  UNL1        0.0721
     23 H          24.1820   -0.5820  121.0490 H       1  UNL1        0.0465
     24 H          27.6200   -0.3800  123.2330 H       1  UNL1        0.0597
     25 H          25.7250   -0.7650  124.5800 H       1  UNL1        0.0288
     26 H          23.6530   -1.5270  123.5870 H       1  UNL1        0.0281
     27 H          24.2580    0.5130  122.4500 H       1  UNL1        0.0465
     28 H          26.0870   -2.4700  124.2460 H       1  UNL1        0.0288
     29 H          24.5180   -2.5200  122.4040 H       1  UNL1        0.0281
     30 H          32.7030   -2.6490  120.3100 H       1  UNL1        0.0252
     31 H          30.6370   -1.3200  121.5410 H       1  UNL1        0.1495
     32 H          33.3160   -1.0460  122.8400 H       1  UNL1        0.0592
     33 H          33.1710   -3.3210  121.8770 H       1  UNL1        0.0252
     34 H          34.3150   -2.3210  120.9650 H       1  UNL1        0.0252
     35 H          41.1660    1.9920  116.9460 H       1  UNL1        0.0272
     36 H          41.3090    3.7580  116.9480 H       1  UNL1        0.0272
     37 H          41.5260    2.8510  115.4380 H       1  UNL1        0.0272
     38 H          29.6910   -2.9490  125.7700 H       1  UNL1        0.0252
     39 H          29.0470   -1.3560  124.0710 H       1  UNL1        0.0594
     40 H          29.7970   -4.2580  124.5900 H       1  UNL1        0.0252
     41 H          28.2230   -3.5420  124.9750 H       1  UNL1        0.0252
     42 H          31.6290    4.0250  121.5720 H       1  UNL1        0.0314
     43 H          32.3680    0.8440  123.6510 H       1  UNL1        0.0616
     44 H          33.5310    2.9190  123.6900 H       1  UNL1        0.0292
     45 H          32.5360    2.5860  119.9530 H       1  UNL1        0.0467
     46 H          34.6000    4.5290  122.1190 H       1  UNL1        0.0233
     47 H          33.6350    5.2740  120.8340 H       1  UNL1        0.0233
     48 H          31.8800    3.5290  123.9210 H       1  UNL1        0.0292
     49 H          34.1180    2.4910  120.7540 H       1  UNL1        0.0467
     50 H          33.2640    5.6150  122.5340 H       1  UNL1        0.0233
     51 C          32.4390    1.1010  116.6640 C.2     1  UNL1        0.2375
     52 C          33.8830    0.8450  116.8770 C.2     1  UNL1        0.0001
     53 C          34.8060    1.6710  116.3620 C.2     1  UNL1       -0.0569
     54 C          36.2200    1.4950  116.6120 C.2     1  UNL1       -0.0616
     55 C          37.1550    2.3520  116.1760 C.2     1  UNL1       -0.0621
     56 C          38.5610    2.1810  116.4650 C.2     1  UNL1       -0.0659
     57 C          39.5000    3.0530  116.0690 C.2     1  UNL1       -0.0871
     58 C          40.9550    2.8980  116.3700 C.3     1  UNL1       -0.0465
     59 O          32.0130    1.8730  115.8160 O.2     1  UNL1       -0.2708
     60 N          31.6470    0.4210  117.5480 N.am    1  UNL1       -0.3002
     61 C          30.2050    0.6240  117.6150 C.3     1  UNL1        0.1036
     62 C          29.7260    0.2660  119.0310 C.2     1  UNL1        0.2344
     63 O          30.3440   -0.4910  119.7840 O.2     1  UNL1       -0.2738
     64 C          29.4070   -0.1090  116.5280 C.3     1  UNL1       -0.0006
     65 C          29.4520   -1.6170  116.6040 C.ar    1  UNL1       -0.0451
     66 C          30.4540   -2.3310  115.9350 C.ar    1  UNL1       -0.0585
     67 C          28.4930   -2.3230  117.3450 C.ar    1  UNL1       -0.0585
     68 C          30.4910   -3.7250  115.9990 C.ar    1  UNL1       -0.0615
     69 C          28.5350   -3.7160  117.4110 C.ar    1  UNL1       -0.0615
     70 C          29.5320   -4.4170  116.7350 C.ar    1  UNL1       -0.0617
     71 N          28.5530    0.8710  119.4220 N.am    1  UNL1       -0.2997
     72 C          28.1180    0.8140  120.8140 C.3     1  UNL1        0.1340
     73 C          26.5970    0.6740  120.8970 C.2     1  UNL1        0.2399
     74 O          25.8680    1.3500  120.1660 O.2     1  UNL1       -0.2734
     75 C          28.5600    2.0670  121.5700 C.3     1  UNL1        0.1193
     76 O          29.9960    2.0410  121.7160 O.3     1  UNL1       -0.4610
     77 N          26.0980   -0.2040  121.8350 N.am    1  UNL1       -0.2883
     78 C          26.8780   -1.0280  122.7710 C.3     1  UNL1        0.1025
     79 C          27.5310   -2.2340  122.0380 C.2     1  UNL1        0.2365
     80 O          26.9440   -2.7630  121.0890 O.2     1  UNL1       -0.2735
     81 C          25.8400   -1.5100  123.7840 C.3     1  UNL1       -0.0243
     82 C          24.5520   -1.5800  122.9670 C.3     1  UNL1       -0.0350
     83 C          24.6720   -0.4020  122.0110 C.3     1  UNL1        0.0156
     84 N          28.7680   -2.7110  122.4730 N.am    1  UNL1       -0.2917
     85 C          29.2870   -3.8930  121.7840 C.3     1  UNL1        0.0040
     86 C          29.4750   -2.2890  123.7060 C.3     1  UNL1        0.0991
     87 C          29.2840   -3.3180  124.8220 C.3     1  UNL1       -0.0379
     88 C          30.9800   -1.9740  123.5040 C.2     1  UNL1        0.2339
     89 O          31.7980   -2.0800  124.4170 O.2     1  UNL1       -0.2738
     90 N          31.3240   -1.4080  122.2930 N.am    1  UNL1       -0.3027
     91 C          32.7230   -1.1920  121.9300 C.3     1  UNL1        0.0968
     92 C          32.9340    0.0670  121.0520 C.2     1  UNL1        0.2363
     93 O          33.4380   -0.0150  119.9270 O.2     1  UNL1       -0.2736
     94 C          33.2600   -2.4410  121.2310 C.3     1  UNL1       -0.0381
     95 C          30.4920    1.5570  122.8880 C.2     1  UNL1        0.3279
     96 N          32.6440    1.3010  121.6040 N.am    1  UNL1       -0.2862
     97 O          29.7960    1.2500  123.8490 O.2     1  UNL1       -0.2487
     98 C          32.0320    1.5730  122.9090 C.3     1  UNL1        0.1233
     99 C          32.5340    2.9820  123.2350 C.3     1  UNL1       -0.0199
    100 C          33.0360    2.5260  120.9250 C.3     1  UNL1        0.0182
    101 C          33.5880    4.8360  121.8370 C.3     1  UNL1       -0.0609
    102 C          32.6230    3.6620  121.8600 C.3     1  UNL1       -0.0258
@<TRIPOS>BOND
     1    14    66    1
     2    37    58    1
     3    16    68    1
     4     6    57    1
     5    13    64    1
     6     4    55    1
     7     2    53    1
     8    59    51    2
     9    66    68   ar
    10    66    65   ar
    11    68    70   ar
    12    57    58    1
    13    57    56    2
    14    55    56    1
    15    55    54    2
    16    53    54    1
    17    53    52    2
    18    58    35    1
    19    58    36    1
    20    56     5    1
    21    64    18    1
    22    64    65    1
    23    64    61    1
    24    65    67   ar
    25    54     3    1
    26    51    52    1
    27    51    60   am
    28    70    10    1
    29    70    69   ar
    30    52     1    1
    31    67    69   ar
    32    67    15    1
    33    69    17    1
    34    12    61    1
    35    60    61    1
    36    60    11    1
    37    61    62    1
    38    20    71    1
    39    62    71   am
    40    62    63    2
    41    71    72    1
    42    93    92    2
    43    45   100    1
    44    74    73    2
    45    30    94    1
    46     7    85    1
    47    49   100    1
    48    72    73    1
    49    72    21    1
    50    72    75    1
    51    47   101    1
    52    73    77   am
    53   100    96    1
    54   100   102    1
    55    34    94    1
    56    22    75    1
    57    23    83    1
    58    92    96   am
    59    92    91    1
    60    80    79    2
    61    94    33    1
    62    94    91    1
    63    31    90    1
    64    75    76    1
    65    75    19    1
    66    42   102    1
    67    96    98    1
    68    76    95    1
    69    85     9    1
    70    85     8    1
    71    85    84    1
    72    77    83    1
    73    77    78    1
    74   101   102    1
    75   101    46    1
    76   101    50    1
    77   102    99    1
    78    91    90    1
    79    91    32    1
    80    83    27    1
    81    83    82    1
    82    79    84   am
    83    79    78    1
    84    90    88   am
    85    29    82    1
    86    84    86    1
    87    78    24    1
    88    78    81    1
    89    95    98    1
    90    95    97    2
    91    98    99    1
    92    98    43    1
    93    82    26    1
    94    82    81    1
    95    99    44    1
    96    99    48    1
    97    88    86    1
    98    88    89    2
    99    86    39    1
   100    86    87    1
   101    81    28    1
   102    81    25    1
   103    40    87    1
   104    87    41    1
   105    87    38    1
