@<TRIPOS>MOLECULE
138.66041
 102 105 0 0 0
SMALL
GASTEIGER

@<TRIPOS>ATOM
      1 H          30.1100    4.9310  125.9090 H       1  UNL1        0.0669
      2 H          30.7710    4.8300  122.9020 H       1  UNL1        0.0619
      3 H          31.6600    6.7380  125.2040 H       1  UNL1        0.0618
      4 H          32.3520    6.5770  122.2120 H       1  UNL1        0.0617
      5 H          33.2210    8.4950  124.5100 H       1  UNL1        0.0614
      6 H          33.9280    8.3280  121.5230 H       1  UNL1        0.0569
      7 H          21.8590    2.1600  117.5280 H       1  UNL1        0.0429
      8 H          22.8610    1.0210  116.6190 H       1  UNL1        0.0429
      9 H          23.4570    2.6680  116.9530 H       1  UNL1        0.0429
     10 H          32.9120   -0.5420  128.5680 H       1  UNL1        0.0618
     11 H          28.8340    3.2120  126.5540 H       1  UNL1        0.1498
     12 H          28.4140    0.9410  124.7620 H       1  UNL1        0.0598
     13 H          27.3660   -0.1370  126.7910 H       1  UNL1        0.0336
     14 H          29.7220   -0.9770  125.7350 H       1  UNL1        0.0620
     15 H          29.2890    1.6900  129.1050 H       1  UNL1        0.0620
     16 H          31.9850   -1.5690  126.5090 H       1  UNL1        0.0618
     17 H          31.5570    1.0830  129.8600 H       1  UNL1        0.0618
     18 H          27.4500    1.3870  127.6490 H       1  UNL1        0.0336
     19 H          24.1430    4.1230  121.9140 H       1  UNL1        0.0721
     20 H          27.2380    2.7270  123.4090 H       1  UNL1        0.1496
     21 H          24.3170    2.7910  124.0260 H       1  UNL1        0.0629
     22 H          25.9050    3.9650  121.6890 H       1  UNL1        0.0721
     23 H          22.1730    2.3410  123.0640 H       1  UNL1        0.0465
     24 H          24.0770   -0.3550  120.6430 H       1  UNL1        0.0597
     25 H          22.5630   -1.3880  122.1050 H       1  UNL1        0.0288
     26 H          20.8980   -0.1480  123.2960 H       1  UNL1        0.0281
     27 H          22.8730    0.9720  123.9660 H       1  UNL1        0.0465
     28 H          21.4470   -0.9980  120.7830 H       1  UNL1        0.0288
     29 H          20.6390    0.9630  121.9530 H       1  UNL1        0.0281
     30 H          25.0340    5.6070  117.1460 H       1  UNL1        0.0252
     31 H          23.9960    3.4770  119.0890 H       1  UNL1        0.1495
     32 H          26.4460    4.8700  119.7700 H       1  UNL1        0.0592
     33 H          26.6890    5.0070  117.3020 H       1  UNL1        0.0252
     34 H          26.2590    6.6000  117.9490 H       1  UNL1        0.0252
     35 H          34.7760   10.2230  123.8350 H       1  UNL1        0.0272
     36 H          34.4870   10.7300  122.1620 H       1  UNL1        0.0272
     37 H          35.8470    9.6550  122.5420 H       1  UNL1        0.0272
     38 H          26.5440    0.1580  117.3710 H       1  UNL1        0.0252
     39 H          25.3160    0.5690  119.3940 H       1  UNL1        0.0594
     40 H          25.3350    0.9730  116.3820 H       1  UNL1        0.0252
     41 H          24.9320   -0.5550  117.1900 H       1  UNL1        0.0252
     42 H          24.3530    8.0880  123.3470 H       1  UNL1        0.0314
     43 H          26.8880    6.6300  120.8820 H       1  UNL1        0.0616
     44 H          26.2230    8.9350  121.0760 H       1  UNL1        0.0292
     45 H          22.9410    7.0600  121.7880 H       1  UNL1        0.0467
     46 H          24.1930   10.3760  121.3090 H       1  UNL1        0.0233
     47 H          22.9910   10.0110  122.5580 H       1  UNL1        0.0233
     48 H          26.6560    8.5920  122.7620 H       1  UNL1        0.0292
     49 H          23.3980    8.1600  120.4680 H       1  UNL1        0.0467
     50 H          24.6210   10.5350  123.0200 H       1  UNL1        0.0233
     51 C          29.2680    3.4090  124.5430 C.2     1  UNL1        0.2375
     52 C          30.0990    4.5890  124.8830 C.2     1  UNL1        0.0001
     53 C          30.8090    5.2030  123.9250 C.2     1  UNL1       -0.0569
     54 C          31.6410    6.3570  124.1850 C.2     1  UNL1       -0.0616
     55 C          32.3700    6.9580  123.2320 C.2     1  UNL1       -0.0621
     56 C          33.2020    8.1100  123.4930 C.2     1  UNL1       -0.0659
     57 C          33.9390    8.7060  122.5430 C.2     1  UNL1       -0.0871
     58 C          34.8090    9.8950  122.7920 C.3     1  UNL1       -0.0465
     59 O          29.0930    3.0160  123.3960 O.2     1  UNL1       -0.2708
     60 N          28.6980    2.8120  125.6360 N.am    1  UNL1       -0.3002
     61 C          27.9460    1.5530  125.5440 C.3     1  UNL1        0.1036
     62 C          26.4890    1.8040  125.0860 C.2     1  UNL1        0.2344
     63 O          25.5100    1.2910  125.6260 O.2     1  UNL1       -0.2738
     64 C          27.9530    0.7870  126.8790 C.3     1  UNL1       -0.0006
     65 C          29.3400    0.4130  127.3550 C.ar    1  UNL1       -0.0451
     66 C          30.1120   -0.5120  126.6380 C.ar    1  UNL1       -0.0585
     67 C          29.8700    0.9810  128.5210 C.ar    1  UNL1       -0.0585
     68 C          31.3940   -0.8520  127.0730 C.ar    1  UNL1       -0.0615
     69 C          31.1520    0.6390  128.9540 C.ar    1  UNL1       -0.0615
     70 C          31.9140   -0.2750  128.2300 C.ar    1  UNL1       -0.0617
     71 N          26.3770    2.5320  123.9260 N.am    1  UNL1       -0.2997
     72 C          25.0990    2.7480  123.2640 C.3     1  UNL1        0.1340
     73 C          24.8760    1.6180  122.2440 C.2     1  UNL1        0.2399
     74 O          25.8120    1.1980  121.5590 O.2     1  UNL1       -0.2734
     75 C          25.1030    4.0300  122.4310 C.3     1  UNL1        0.1193
     76 O          25.2710    5.1980  123.2430 O.3     1  UNL1       -0.4610
     77 N          23.5860    1.1940  122.0210 N.am    1  UNL1       -0.2883
     78 C          23.2420    0.2910  120.9180 C.3     1  UNL1        0.1025
     79 C          22.7090    1.0770  119.6790 C.2     1  UNL1        0.2365
     80 O          21.5550    1.5240  119.6980 O.2     1  UNL1       -0.2735
     81 C          22.1220   -0.5650  121.5270 C.3     1  UNL1       -0.0243
     82 C          21.4020    0.3830  122.4820 C.3     1  UNL1       -0.0350
     83 C          22.5030    1.3010  122.9890 C.3     1  UNL1        0.0156
     84 N          23.5240    1.3190  118.5740 N.am    1  UNL1       -0.2917
     85 C          22.8860    1.8290  117.3570 C.3     1  UNL1        0.0040
     86 C          25.0010    1.1540  118.5350 C.3     1  UNL1        0.0991
     87 C          25.4760    0.3890  117.2980 C.3     1  UNL1       -0.0379
     88 C          25.7660    2.5060  118.6470 C.2     1  UNL1        0.2339
     89 O          26.9800    2.5970  118.4740 O.2     1  UNL1       -0.2738
     90 N          25.0030    3.5960  118.9980 N.am    1  UNL1       -0.3027
     91 C          25.5480    4.9430  119.1550 C.3     1  UNL1        0.0968
     92 C          24.4500    5.7950  119.8200 C.2     1  UNL1        0.2363
     93 O          23.2840    5.7080  119.4170 O.2     1  UNL1       -0.2736
     94 C          25.9030    5.5730  117.8130 C.3     1  UNL1       -0.0381
     95 C          26.2920    6.0050  122.8530 C.2     1  UNL1        0.3279
     96 N          24.7720    6.6430  120.8560 N.am    1  UNL1       -0.2862
     97 O          27.2830    6.1590  123.5600 O.2     1  UNL1       -0.2487
     98 C          26.0530    6.8300  121.5580 C.3     1  UNL1        0.1233
     99 C          25.9820    8.3110  121.9470 C.3     1  UNL1       -0.0199
    100 C          23.7780    7.5980  121.3290 C.3     1  UNL1        0.0182
    101 C          24.0530    9.9350  122.3010 C.3     1  UNL1       -0.0609
    102 C          24.5090    8.4870  122.3360 C.3     1  UNL1       -0.0258
@<TRIPOS>BOND
     1    40    87    1
     2     8    85    1
     3     9    85    1
     4    30    94    1
     5    41    87    1
     6    87    38    1
     7    87    86    1
     8    33    94    1
     9    85     7    1
    10    85    84    1
    11    94    34    1
    12    94    91    1
    13    89    88    2
    14    86    84    1
    15    86    88    1
    16    86    39    1
    17    84    79   am
    18    88    90   am
    19    90    31    1
    20    90    91    1
    21    91    32    1
    22    91    92    1
    23    93    92    2
    24    79    80    2
    25    79    78    1
    26    92    96   am
    27    49   100    1
    28    24    78    1
    29    28    81    1
    30    96   100    1
    31    96    98    1
    32    43    98    1
    33    78    81    1
    34    78    77    1
    35    44    99    1
    36    46   101    1
    37   100    45    1
    38   100   102    1
    39     6    57    1
    40    81    25    1
    41    81    82    1
    42    98    99    1
    43    98    95    1
    44    74    73    2
    45    22    75    1
    46    19    75    1
    47    99   102    1
    48    99    48    1
    49    29    82    1
    50    77    73   am
    51    77    83    1
    52    36    58    1
    53     4    55    1
    54    73    72    1
    55   101   102    1
    56   101    47    1
    57   101    50    1
    58   102    42    1
    59    75    76    1
    60    75    72    1
    61    82    83    1
    62    82    26    1
    63    37    58    1
    64    57    58    1
    65    57    56    2
    66    58    35    1
    67    95    76    1
    68    95    97    2
    69     2    53    1
    70    83    23    1
    71    83    27    1
    72    55    56    1
    73    55    54    2
    74    72    71    1
    75    72    21    1
    76    59    51    2
    77    20    71    1
    78    56     5    1
    79    53    54    1
    80    53    52    2
    81    71    62   am
    82    54     3    1
    83    51    52    1
    84    51    60   am
    85    12    61    1
    86    52     1    1
    87    62    61    1
    88    62    63    2
    89    61    60    1
    90    61    64    1
    91    60    11    1
    92    14    66    1
    93    16    68    1
    94    66    68   ar
    95    66    65   ar
    96    13    64    1
    97    64    65    1
    98    64    18    1
    99    68    70   ar
   100    65    67   ar
   101    70    10    1
   102    70    69   ar
   103    67    69   ar
   104    67    15    1
   105    69    17    1
