@<TRIPOS>MOLECULE
127.80515
 102 105 0 0 0
SMALL
GASTEIGER

@<TRIPOS>ATOM
      1 H          28.6540    1.6670  130.0600 H       1  UNL1        0.0669
      2 H          30.7270    3.9470  130.1130 H       1  UNL1        0.0619
      3 H          28.9640    2.6450  132.3330 H       1  UNL1        0.0618
      4 H          30.9660    4.9790  132.3200 H       1  UNL1        0.0617
      5 H          29.2080    3.6850  134.5440 H       1  UNL1        0.0614
      6 H          31.1800    6.0430  134.5160 H       1  UNL1        0.0569
      7 H          23.0220    1.9210  117.3700 H       1  UNL1        0.0429
      8 H          24.4240    2.3880  116.4020 H       1  UNL1        0.0429
      9 H          23.8150    3.4760  117.6810 H       1  UNL1        0.0429
     10 H          29.4010   -4.6030  126.6520 H       1  UNL1        0.0618
     11 H          28.1190    1.0700  127.9530 H       1  UNL1        0.1498
     12 H          29.1150    2.5780  125.7210 H       1  UNL1        0.0598
     13 H          30.9990    0.9650  125.8590 H       1  UNL1        0.0336
     14 H          30.8360   -0.7060  127.7370 H       1  UNL1        0.0620
     15 H          28.8330   -1.3100  123.9620 H       1  UNL1        0.0620
     16 H          30.5420   -3.1010  128.2630 H       1  UNL1        0.0618
     17 H          28.5520   -3.7000  124.5040 H       1  UNL1        0.0618
     18 H          30.0610    0.7550  124.4020 H       1  UNL1        0.0336
     19 H          25.1730    2.8240  125.0280 H       1  UNL1        0.0721
     20 H          27.9440    1.9380  123.6950 H       1  UNL1        0.1496
     21 H          25.4690    0.4170  124.1550 H       1  UNL1        0.0629
     22 H          24.0330    2.2750  123.8090 H       1  UNL1        0.0721
     23 H          23.5380   -0.1350  122.8870 H       1  UNL1        0.0465
     24 H          26.1600   -0.0780  119.7340 H       1  UNL1        0.0597
     25 H          25.2180   -2.1850  120.0800 H       1  UNL1        0.0288
     26 H          23.2540   -2.4820  121.4370 H       1  UNL1        0.0281
     27 H          24.8130   -1.3790  122.8690 H       1  UNL1        0.0465
     28 H          23.9640   -1.5300  119.0090 H       1  UNL1        0.0288
     29 H          22.5570   -0.9530  120.8940 H       1  UNL1        0.0281
     30 H          24.0260    6.0970  118.2230 H       1  UNL1        0.0252
     31 H          24.7390    3.6990  119.8210 H       1  UNL1        0.1495
     32 H          26.5090    6.0470  120.0060 H       1  UNL1        0.0592
     33 H          25.6990    6.3230  117.7090 H       1  UNL1        0.0252
     34 H          24.9250    7.5270  118.7520 H       1  UNL1        0.0252
     35 H          29.4120    4.7410  136.7140 H       1  UNL1        0.0272
     36 H          29.7260    6.4780  136.5580 H       1  UNL1        0.0272
     37 H          31.0490    5.3710  136.9700 H       1  UNL1        0.0272
     38 H          28.0930    2.0170  117.1490 H       1  UNL1        0.0252
     39 H          26.8370    1.6860  119.1580 H       1  UNL1        0.0594
     40 H          26.6680    2.4920  116.2310 H       1  UNL1        0.0252
     41 H          26.8390    0.8160  116.7900 H       1  UNL1        0.0252
     42 H          25.0810    5.9920  125.1360 H       1  UNL1        0.0314
     43 H          27.1740    5.8970  121.9280 H       1  UNL1        0.0616
     44 H          26.9240    7.7640  123.4550 H       1  UNL1        0.0292
     45 H          23.4220    6.1420  123.4990 H       1  UNL1        0.0467
     46 H          25.1790    9.0300  124.7190 H       1  UNL1        0.0233
     47 H          24.0250    8.1550  125.7410 H       1  UNL1        0.0233
     48 H          27.3890    6.4710  124.5780 H       1  UNL1        0.0292
     49 H          23.9350    7.7530  122.9490 H       1  UNL1        0.0467
     50 H          25.7500    8.1560  126.1500 H       1  UNL1        0.0233
     51 C          29.7250    2.3660  128.2560 C.2     1  UNL1        0.2375
     52 C          29.3970    2.3680  129.7020 C.2     1  UNL1        0.0001
     53 C          29.9940    3.2500  130.5170 C.2     1  UNL1       -0.0569
     54 C          29.6890    3.3480  131.9280 C.2     1  UNL1       -0.0616
     55 C          30.2460    4.2710  132.7260 C.2     1  UNL1       -0.0621
     56 C          29.9250    4.3910  134.1300 C.2     1  UNL1       -0.0659
     57 C          30.4640    5.3310  134.9210 C.2     1  UNL1       -0.0871
     58 C          30.1400    5.4830  136.3720 C.3     1  UNL1       -0.0465
     59 O          30.6400    3.0220  127.7770 O.2     1  UNL1       -0.2708
     60 N          28.8780    1.5860  127.5210 N.am    1  UNL1       -0.3002
     61 C          28.9200    1.5530  126.0610 C.3     1  UNL1        0.1036
     62 C          27.5130    1.1670  125.5690 C.2     1  UNL1        0.2344
     63 O          26.6430    0.7280  126.3240 O.2     1  UNL1       -0.2738
     64 C          30.0170    0.6390  125.4930 C.3     1  UNL1       -0.0006
     65 C          29.8510   -0.8300  125.8140 C.ar    1  UNL1       -0.0451
     66 C          30.3290   -1.3520  127.0230 C.ar    1  UNL1       -0.0585
     67 C          29.2100   -1.6890  124.9090 C.ar    1  UNL1       -0.0585
     68 C          30.1660   -2.7050  127.3230 C.ar    1  UNL1       -0.0615
     69 C          29.0480   -3.0420  125.2110 C.ar    1  UNL1       -0.0615
     70 C          29.5250   -3.5490  126.4180 C.ar    1  UNL1       -0.0617
     71 N          27.2770    1.3850  124.2330 N.am    1  UNL1       -0.2997
     72 C          25.9360    1.2790  123.6720 C.3     1  UNL1        0.1340
     73 C          26.0310    1.0700  122.1570 C.2     1  UNL1        0.2399
     74 O          26.8690    1.6840  121.4910 O.2     1  UNL1       -0.2734
     75 C          25.0870    2.5270  123.9760 C.3     1  UNL1        0.1193
     76 O          25.3240    3.6960  123.1580 O.3     1  UNL1       -0.4610
     77 N          25.1410    0.2030  121.5650 N.am    1  UNL1       -0.2883
     78 C          25.1410   -0.0210  120.1190 C.3     1  UNL1        0.1025
     79 C          24.2980    1.0560  119.3880 C.2     1  UNL1        0.2365
     80 O          23.1080    1.2210  119.6770 O.2     1  UNL1       -0.2735
     81 C          24.4680   -1.3920  119.9700 C.3     1  UNL1       -0.0243
     82 C          23.4980   -1.4560  121.1460 C.3     1  UNL1       -0.0350
     83 C          24.2220   -0.6980  122.2470 C.3     1  UNL1        0.0156
     84 N          24.8830    1.7960  118.3660 N.am    1  UNL1       -0.2917
     85 C          23.9880    2.4340  117.4020 C.3     1  UNL1        0.0040
     86 C          26.3070    2.2140  118.3690 C.3     1  UNL1        0.0991
     87 C          27.0120    1.8640  117.0590 C.3     1  UNL1       -0.0379
     88 C          26.4980    3.7140  118.7190 C.2     1  UNL1        0.2339
     89 O          27.4990    4.3460  118.3840 O.2     1  UNL1       -0.2738
     90 N          25.5280    4.2690  119.5280 N.am    1  UNL1       -0.3027
     91 C          25.4960    5.7000  119.7920 C.3     1  UNL1        0.0968
     92 C          24.5480    6.0270  120.9630 C.2     1  UNL1        0.2363
     93 O          23.3300    6.1240  120.7840 O.2     1  UNL1       -0.2736
     94 C          25.0090    6.4540  118.5490 C.3     1  UNL1       -0.0381
     95 C          26.5030    4.3650  123.2700 C.2     1  UNL1        0.3279
     96 N          25.0840    6.1800  122.2220 N.am    1  UNL1       -0.2862
     97 O          27.5100    3.9320  123.8200 O.2     1  UNL1       -0.2487
     98 C          26.4160    5.7990  122.7060 C.3     1  UNL1        0.1233
     99 C          26.6280    6.7860  123.8560 C.3     1  UNL1       -0.0199
    100 C          24.2910    6.7740  123.2890 C.3     1  UNL1        0.0182
    101 C          25.0360    8.1260  125.3200 C.3     1  UNL1       -0.0609
    102 C          25.2340    6.8680  124.4920 C.3     1  UNL1       -0.0258
@<TRIPOS>BOND
     1    40    87    1
     2     8    85    1
     3    41    87    1
     4    87    38    1
     5    87    86    1
     6     7    85    1
     7    85     9    1
     8    85    84    1
     9    33    94    1
    10    30    94    1
    11    84    86    1
    12    84    79   am
    13    86    88    1
    14    86    39    1
    15    89    88    2
    16    94    34    1
    17    94    91    1
    18    88    90   am
    19    28    81    1
    20    79    80    2
    21    79    78    1
    22    90    91    1
    23    90    31    1
    24    24    78    1
    25    91    32    1
    26    91    92    1
    27    81    25    1
    28    81    78    1
    29    81    82    1
    30    78    77    1
    31    93    92    2
    32    29    82    1
    33    92    96   am
    34    82    26    1
    35    82    83    1
    36    74    73    2
    37    77    73   am
    38    77    83    1
    39    43    98    1
    40    73    72    1
    41    96    98    1
    42    96   100    1
    43    83    27    1
    44    83    23    1
    45    98    95    1
    46    98    99    1
    47    49   100    1
    48    76    95    1
    49    76    75    1
    50    95    97    2
    51   100    45    1
    52   100   102    1
    53    44    99    1
    54    72    75    1
    55    72    21    1
    56    72    71    1
    57    20    71    1
    58    22    75    1
    59    99   102    1
    60    99    48    1
    61    15    67    1
    62    75    19    1
    63    71    62   am
    64    18    64    1
    65   102    42    1
    66   102   101    1
    67    17    69    1
    68    46   101    1
    69    67    69   ar
    70    67    65   ar
    71    69    70   ar
    72   101    47    1
    73   101    50    1
    74    64    65    1
    75    64    13    1
    76    64    61    1
    77    62    61    1
    78    62    63    2
    79    12    61    1
    80    65    66   ar
    81    61    60    1
    82    70    10    1
    83    70    68   ar
    84    66    68   ar
    85    66    14    1
    86    68    16    1
    87    60    11    1
    88    60    51   am
    89    59    51    2
    90    51    52    1
    91    52     1    1
    92    52    53    2
    93     2    53    1
    94    53    54    1
    95    54     3    1
    96    54    55    2
    97     4    55    1
    98    55    56    1
    99    56     5    1
   100    56    57    2
   101     6    57    1
   102    57    58    1
   103    58    36    1
   104    58    35    1
   105    58    37    1
