@<TRIPOS>MOLECULE
143.58321
 102 105 0 0 0
SMALL
GASTEIGER

@<TRIPOS>ATOM
      1 H          27.0220   -9.8070  138.2870 H       1  UNL1        0.0669
      2 H          25.8170   -8.8280  135.6250 H       1  UNL1        0.0619
      3 H          27.1650  -11.5110  136.4740 H       1  UNL1        0.0618
      4 H          25.9520  -10.4950  133.8370 H       1  UNL1        0.0617
      5 H          27.3400  -13.1600  134.6660 H       1  UNL1        0.0614
      6 H          26.1190  -12.1480  132.0320 H       1  UNL1        0.0569
      7 H          27.8800   -0.3860  132.5830 H       1  UNL1        0.0429
      8 H          27.5180   -0.8470  130.9270 H       1  UNL1        0.0429
      9 H          29.0670   -0.0300  131.3010 H       1  UNL1        0.0429
     10 H          22.1640   -9.0120  143.3180 H       1  UNL1        0.0618
     11 H          27.1290   -8.1630  139.8160 H       1  UNL1        0.1498
     12 H          25.5120   -5.6910  139.4350 H       1  UNL1        0.0598
     13 H          26.2800   -5.1570  141.7810 H       1  UNL1        0.0336
     14 H          23.6730   -5.5330  141.3120 H       1  UNL1        0.0620
     15 H          26.3860   -8.5960  142.6930 H       1  UNL1        0.0620
     16 H          21.7740   -6.8360  142.1930 H       1  UNL1        0.0618
     17 H          24.4720   -9.8840  143.5630 H       1  UNL1        0.0618
     18 H          27.2730   -6.5950  141.8040 H       1  UNL1        0.0336
     19 H          29.8810   -6.2330  137.9750 H       1  UNL1        0.0721
     20 H          26.8190   -5.1890  137.4950 H       1  UNL1        0.1496
     21 H          29.2690   -3.7060  138.1140 H       1  UNL1        0.0629
     22 H          30.7920   -5.1570  136.9160 H       1  UNL1        0.0721
     23 H          31.2160   -3.4340  135.9280 H       1  UNL1        0.0465
     24 H          27.8250   -1.6120  134.5050 H       1  UNL1        0.0597
     25 H          29.5510   -0.0980  135.1770 H       1  UNL1        0.0288
     26 H          31.8600   -0.8310  135.3630 H       1  UNL1        0.0281
     27 H          30.5900   -2.1130  136.9420 H       1  UNL1        0.0465
     28 H          30.0640   -0.3050  133.4990 H       1  UNL1        0.0288
     29 H          31.6290   -2.0450  134.0930 H       1  UNL1        0.0281
     30 H          33.4890   -4.1060  132.2210 H       1  UNL1        0.0252
     31 H          30.0920   -5.2020  130.7040 H       1  UNL1        0.1495
     32 H          32.0760   -6.4230  130.8070 H       1  UNL1        0.0592
     33 H          33.7200   -4.5360  130.5130 H       1  UNL1        0.0252
     34 H          34.1480   -5.6770  131.8020 H       1  UNL1        0.0252
     35 H          27.5290  -14.7830  132.8810 H       1  UNL1        0.0272
     36 H          27.7030  -13.9990  131.3010 H       1  UNL1        0.0272
     37 H          26.1390  -14.6860  131.7850 H       1  UNL1        0.0272
     38 H          29.9710   -2.5780  128.5420 H       1  UNL1        0.0252
     39 H          28.7460   -3.6190  130.4690 H       1  UNL1        0.0594
     40 H          30.2050   -1.1020  129.4800 H       1  UNL1        0.0252
     41 H          28.5700   -1.6120  129.0210 H       1  UNL1        0.0252
     42 H          31.4430   -9.6800  133.9190 H       1  UNL1        0.0314
     43 H          29.0500   -6.6960  133.7010 H       1  UNL1        0.0616
     44 H          28.6150   -8.8830  133.0880 H       1  UNL1        0.0292
     45 H          32.3090   -8.4320  132.0370 H       1  UNL1        0.0467
     46 H          29.6590  -10.5840  131.5890 H       1  UNL1        0.0233
     47 H          31.3070  -11.1480  131.9120 H       1  UNL1        0.0233
     48 H          29.1900   -9.3290  134.7050 H       1  UNL1        0.0292
     49 H          30.6930   -8.2850  131.2920 H       1  UNL1        0.0467
     50 H          30.0050  -11.5100  133.0580 H       1  UNL1        0.0233
     51 C          26.1660   -7.7850  138.0180 C.2     1  UNL1        0.2375
     52 C          26.5420   -9.1490  137.5750 C.2     1  UNL1        0.0001
     53 C          26.3010   -9.5240  136.3110 C.2     1  UNL1       -0.0569
     54 C          26.6720  -10.8220  135.7910 C.2     1  UNL1       -0.0616
     55 C          26.4460  -11.1840  134.5190 C.2     1  UNL1       -0.0621
     56 C          26.8410  -12.4690  133.9890 C.2     1  UNL1       -0.0659
     57 C          26.6200  -12.8290  132.7160 C.2     1  UNL1       -0.0871
     58 C          27.0230  -14.1500  132.1460 C.3     1  UNL1       -0.0465
     59 O          25.5840   -6.9840  137.2970 O.2     1  UNL1       -0.2708
     60 N          26.5840   -7.4940  139.2900 N.am    1  UNL1       -0.3002
     61 C          26.4130   -6.1530  139.8570 C.3     1  UNL1        0.1036
     62 C          27.6420   -5.3410  139.4070 C.2     1  UNL1        0.2344
     63 O          28.6210   -5.1520  140.1270 O.2     1  UNL1       -0.2738
     64 C          26.3420   -6.1820  141.3910 C.3     1  UNL1       -0.0006
     65 C          25.1720   -6.9700  141.9310 C.ar    1  UNL1       -0.0451
     66 C          23.8630   -6.4860  141.8010 C.ar    1  UNL1       -0.0585
     67 C          25.3800   -8.2000  142.5710 C.ar    1  UNL1       -0.0585
     68 C          22.7860   -7.2200  142.2980 C.ar    1  UNL1       -0.0615
     69 C          24.3010   -8.9330  143.0670 C.ar    1  UNL1       -0.0615
     70 C          23.0040   -8.4420  142.9300 C.ar    1  UNL1       -0.0617
     71 N          27.6200   -4.9550  138.0870 N.am    1  UNL1       -0.2997
     72 C          28.8070   -4.4140  137.4170 C.3     1  UNL1        0.1340
     73 C          28.3410   -3.6370  136.1540 C.2     1  UNL1        0.2399
     74 O          27.1700   -3.7130  135.7640 O.2     1  UNL1       -0.2734
     75 C          29.7950   -5.5540  137.1190 C.3     1  UNL1        0.1193
     76 O          29.3350   -6.3070  135.9940 O.3     1  UNL1       -0.4610
     77 N          29.2420   -2.8060  135.5210 N.am    1  UNL1       -0.2883
     78 C          28.8490   -1.9780  134.3660 C.3     1  UNL1        0.1025
     79 C          28.8840   -2.7770  133.0230 C.2     1  UNL1        0.2365
     80 O          28.8300   -4.0110  132.9830 O.2     1  UNL1       -0.2735
     81 C          29.8750   -0.8370  134.4320 C.3     1  UNL1       -0.0243
     82 C          31.1380   -1.5260  134.9240 C.3     1  UNL1       -0.0350
     83 C          30.6100   -2.5300  135.9300 C.3     1  UNL1        0.0156
     84 N          28.9610   -2.0500  131.8270 N.am    1  UNL1       -0.2917
     85 C          28.3270   -0.7510  131.6570 C.3     1  UNL1        0.0040
     86 C          29.4420   -2.7890  130.6400 C.3     1  UNL1        0.0991
     87 C          29.5500   -1.9700  129.3510 C.3     1  UNL1       -0.0379
     88 C          30.8670   -3.3350  130.9450 C.2     1  UNL1        0.2339
     89 O          31.7930   -2.5930  131.2620 O.2     1  UNL1       -0.2738
     90 N          30.9660   -4.7110  130.8430 N.am    1  UNL1       -0.3027
     91 C          32.0290   -5.5320  131.4390 C.3     1  UNL1        0.0968
     92 C          31.5150   -5.8920  132.8500 C.2     1  UNL1        0.2363
     93 O          31.4520   -5.0530  133.7500 O.2     1  UNL1       -0.2736
     94 C          33.4190   -4.9200  131.4930 C.3     1  UNL1       -0.0381
     95 C          30.2870   -7.0910  135.4130 C.2     1  UNL1        0.3279
     96 N          30.9540   -7.1460  133.0010 N.am    1  UNL1       -0.2862
     97 O          31.3080   -7.4890  135.9590 O.2     1  UNL1       -0.2487
     98 C          29.8770   -7.3650  133.9680 C.3     1  UNL1        0.1233
     99 C          29.4700   -8.8280  133.7730 C.3     1  UNL1       -0.0199
    100 C          31.2380   -8.3470  132.2410 C.3     1  UNL1        0.0182
    101 C          30.4000  -10.7490  132.3780 C.3     1  UNL1       -0.0609
    102 C          30.7080   -9.4680  133.1310 C.3     1  UNL1       -0.0258
@<TRIPOS>BOND
     1    38    87    1
     2    41    87    1
     3    87    40    1
     4    87    86    1
     5    39    86    1
     6    33    94    1
     7    86    88    1
     8    86    84    1
     9    31    90    1
    10    32    91    1
    11    90    88   am
    12    90    91    1
    13     8    85    1
    14    88    89    2
    15    49   100    1
    16    36    58    1
    17     9    85    1
    18    91    94    1
    19    91    92    1
    20    94    34    1
    21    94    30    1
    22    46   101    1
    23    85    84    1
    24    85     7    1
    25    37    58    1
    26    84    79   am
    27    47   101    1
    28     6    57    1
    29    45   100    1
    30    58    57    1
    31    58    35    1
    32   100    96    1
    33   100   102    1
    34   101    50    1
    35   101   102    1
    36    57    56    2
    37    92    96   am
    38    92    93    2
    39    80    79    2
    40    96    98    1
    41    79    78    1
    42    44    99    1
    43   102    99    1
    44   102    42    1
    45    28    81    1
    46    43    98    1
    47    99    98    1
    48    99    48    1
    49     4    55    1
    50    98    95    1
    51    56    55    1
    52    56     5    1
    53    29    82    1
    54    78    81    1
    55    78    24    1
    56    78    77    1
    57    81    82    1
    58    81    25    1
    59    55    54    2
    60    82    26    1
    61    82    83    1
    62    95    97    2
    63    95    76    1
    64    77    83    1
    65    77    73   am
    66     2    53    1
    67    74    73    2
    68    54    53    1
    69    54     3    1
    70    23    83    1
    71    83    27    1
    72    76    75    1
    73    73    72    1
    74    53    52    2
    75    22    75    1
    76    75    72    1
    77    75    19    1
    78    59    51    2
    79    72    71    1
    80    72    21    1
    81    20    71    1
    82    52    51    1
    83    52     1    1
    84    51    60   am
    85    71    62   am
    86    60    11    1
    87    60    61    1
    88    62    61    1
    89    62    63    2
    90    12    61    1
    91    61    64    1
    92    14    66    1
    93    64    13    1
    94    64    18    1
    95    64    65    1
    96    66    65   ar
    97    66    68   ar
    98    65    67   ar
    99    16    68    1
   100    68    70   ar
   101    67    15    1
   102    67    69   ar
   103    70    69   ar
   104    70    10    1
   105    69    17    1
