@<TRIPOS>MOLECULE
133.80045
 102 105 0 0 0
SMALL
GASTEIGER

@<TRIPOS>ATOM
      1 H          33.5200    2.8880  122.4530 H       1  UNL1        0.0669
      2 H          35.6370    3.8880  120.4490 H       1  UNL1        0.0619
      3 H          35.5130    3.8860  123.5660 H       1  UNL1        0.0618
      4 H          37.5830    4.9020  121.5310 H       1  UNL1        0.0617
      5 H          37.4600    4.9190  124.6450 H       1  UNL1        0.0614
      6 H          39.5220    5.9430  122.6080 H       1  UNL1        0.0569
      7 H          25.3050    0.8160  114.0500 H       1  UNL1        0.0429
      8 H          24.3410    1.7070  112.8540 H       1  UNL1        0.0429
      9 H          23.5350    0.7950  114.1680 H       1  UNL1        0.0429
     10 H          27.9420   -0.5270  114.8400 H       1  UNL1        0.0618
     11 H          31.6590    2.1190  121.4360 H       1  UNL1        0.1498
     12 H          31.2250    2.6570  118.6180 H       1  UNL1        0.0598
     13 H          31.3380   -0.2590  119.6250 H       1  UNL1        0.0336
     14 H          29.3050   -1.2510  118.8430 H       1  UNL1        0.0620
     15 H          31.4910    1.4270  116.2490 H       1  UNL1        0.0620
     16 H          27.6890   -1.6740  117.0250 H       1  UNL1        0.0618
     17 H          29.8450    1.0020  114.4530 H       1  UNL1        0.0618
     18 H          32.4640    0.4410  118.4850 H       1  UNL1        0.0336
     19 H          27.2840    2.8280  121.3790 H       1  UNL1        0.0721
     20 H          29.0090    2.3260  118.0570 H       1  UNL1        0.1496
     21 H          27.1330    1.1330  119.4860 H       1  UNL1        0.0629
     22 H          26.7470    4.0870  120.2530 H       1  UNL1        0.0721
     23 H          28.7000    4.2850  117.5490 H       1  UNL1        0.0465
     24 H          24.7080    4.1160  116.8530 H       1  UNL1        0.0597
     25 H          25.5550    6.2380  116.4930 H       1  UNL1        0.0288
     26 H          27.9370    6.5670  116.3340 H       1  UNL1        0.0281
     27 H          27.4750    5.2940  118.3550 H       1  UNL1        0.0465
     28 H          25.8650    5.6950  114.8340 H       1  UNL1        0.0288
     29 H          28.1360    5.0850  115.3800 H       1  UNL1        0.0281
     30 H          22.1420   -0.4440  117.6620 H       1  UNL1        0.0252
     31 H          23.7330    2.0340  117.1880 H       1  UNL1        0.1495
     32 H          20.9700    2.2930  118.1620 H       1  UNL1        0.0592
     33 H          20.6360    0.2460  117.1010 H       1  UNL1        0.0252
     34 H          20.8160   -0.1370  118.8150 H       1  UNL1        0.0252
     35 H          39.3670    5.9620  125.7110 H       1  UNL1        0.0272
     36 H          40.0270    7.2720  124.7160 H       1  UNL1        0.0272
     37 H          40.8480    5.7000  124.7710 H       1  UNL1        0.0272
     38 H          21.5720    4.2730  113.7530 H       1  UNL1        0.0252
     39 H          23.3410    4.2980  115.3710 H       1  UNL1        0.0594
     40 H          22.0580    2.6950  113.1320 H       1  UNL1        0.0252
     41 H          23.1160    4.1010  112.9020 H       1  UNL1        0.0252
     42 H          25.5730   -0.3680  120.7960 H       1  UNL1        0.0314
     43 H          22.8200    1.8350  122.2270 H       1  UNL1        0.0616
     44 H          23.0880   -0.5290  122.5830 H       1  UNL1        0.0292
     45 H          24.0990   -0.2430  118.9110 H       1  UNL1        0.0467
     46 H          23.6210   -2.6680  121.3650 H       1  UNL1        0.0233
     47 H          24.9860   -2.7190  120.2370 H       1  UNL1        0.0233
     48 H          24.7140    0.0010  123.0560 H       1  UNL1        0.0292
     49 H          22.7330   -0.9180  119.8460 H       1  UNL1        0.0467
     50 H          25.2780   -2.5310  121.9750 H       1  UNL1        0.0233
     51 C          33.2650    2.7480  120.2600 C.2     1  UNL1        0.2375
     52 C          33.9920    3.1000  121.5030 C.2     1  UNL1        0.0001
     53 C          35.1960    3.6860  121.4250 C.2     1  UNL1       -0.0569
     54 C          35.9520    4.0870  122.5910 C.2     1  UNL1       -0.0616
     55 C          37.1440    4.6970  122.5060 C.2     1  UNL1       -0.0621
     56 C          37.8940    5.1170  123.6670 C.2     1  UNL1       -0.0659
     57 C          39.0800    5.7380  123.5810 C.2     1  UNL1       -0.0871
     58 C          39.8700    6.1900  124.7660 C.3     1  UNL1       -0.0465
     59 O          33.7300    2.9150  119.1390 O.2     1  UNL1       -0.2708
     60 N          32.0180    2.2390  120.4930 N.am    1  UNL1       -0.3002
     61 C          31.1190    1.8930  119.3980 C.3     1  UNL1        0.1036
     62 C          29.6830    1.9500  119.9540 C.2     1  UNL1        0.2344
     63 O          29.4190    1.6480  121.1160 O.2     1  UNL1       -0.2738
     64 C          31.4240    0.4940  118.8310 C.3     1  UNL1       -0.0006
     65 C          30.5130    0.1250  117.6810 C.ar    1  UNL1       -0.0451
     66 C          29.4450   -0.7610  117.8810 C.ar    1  UNL1       -0.0585
     67 C          30.6650    0.7420  116.4320 C.ar    1  UNL1       -0.0585
     68 C          28.5250   -0.9990  116.8600 C.ar    1  UNL1       -0.0615
     69 C          29.7400    0.5050  115.4150 C.ar    1  UNL1       -0.0615
     70 C          28.6680   -0.3590  115.6310 C.ar    1  UNL1       -0.0617
     71 N          28.7290    2.3230  119.0330 N.am    1  UNL1       -0.2997
     72 C          27.3020    2.1990  119.2820 C.3     1  UNL1        0.1340
     73 C          26.4500    2.5260  118.0370 C.2     1  UNL1        0.2399
     74 O          25.4660    1.8200  117.7690 O.2     1  UNL1       -0.2734
     75 C          26.7310    3.0120  120.4540 C.3     1  UNL1        0.1193
     76 O          25.3560    2.6010  120.5750 O.3     1  UNL1       -0.4610
     77 N          26.6710    3.6860  117.3220 N.am    1  UNL1       -0.2883
     78 C          25.6680    4.0890  116.3340 C.3     1  UNL1        0.1025
     79 C          25.6530    3.0780  115.1650 C.2     1  UNL1        0.2365
     80 O          26.7090    2.6690  114.6740 O.2     1  UNL1       -0.2735
     81 C          26.0790    5.4890  115.8870 C.3     1  UNL1       -0.0243
     82 C          27.5690    5.5460  116.1980 C.3     1  UNL1       -0.0350
     83 C          27.6990    4.7050  117.4600 C.3     1  UNL1        0.0156
     84 N          24.4140    2.6090  114.7330 N.am    1  UNL1       -0.2917
     85 C          24.3990    1.4120  113.9050 C.3     1  UNL1        0.0040
     86 C          23.1320    3.3160  114.9350 C.3     1  UNL1        0.0991
     87 C          22.4320    3.6100  113.6030 C.3     1  UNL1       -0.0379
     88 C          22.1620    2.6270  115.9280 C.2     1  UNL1        0.2339
     89 O          20.9410    2.6920  115.7770 O.2     1  UNL1       -0.2738
     90 N          22.7190    2.1140  117.0830 N.am    1  UNL1       -0.3027
     91 C          21.8690    1.6580  118.1830 C.3     1  UNL1        0.0968
     92 C          22.4610    1.9790  119.5860 C.2     1  UNL1        0.2363
     93 O          22.3370    3.1260  120.0390 O.2     1  UNL1       -0.2736
     94 C          21.3430    0.2500  117.9380 C.3     1  UNL1       -0.0381
     95 C          24.8740    2.2720  121.7950 C.2     1  UNL1        0.3279
     96 N          23.1890    1.0550  120.2990 N.am    1  UNL1       -0.2862
     97 O          25.4070    2.5690  122.8580 O.2     1  UNL1       -0.2487
     98 C          23.6370    1.3580  121.6740 C.3     1  UNL1        0.1233
     99 C          23.9960   -0.0240  122.2300 C.3     1  UNL1       -0.0199
    100 C          23.6160   -0.2750  119.8910 C.3     1  UNL1        0.0182
    101 C          24.6110   -2.2510  121.1530 C.3     1  UNL1       -0.0609
    102 C          24.5610   -0.7410  120.9990 C.3     1  UNL1       -0.0258
@<TRIPOS>BOND
     1     8    85    1
     2    41    87    1
     3    40    87    1
     4    87    38    1
     5    87    86    1
     6    85     7    1
     7    85     9    1
     8    85    84    1
     9    17    69    1
    10    80    79    2
    11    84    86    1
    12    84    79   am
    13    28    81    1
    14    10    70    1
    15    86    39    1
    16    86    88    1
    17    79    78    1
    18    29    82    1
    19    69    70   ar
    20    69    67   ar
    21    70    68   ar
    22    89    88    2
    23    81    82    1
    24    81    78    1
    25    81    25    1
    26    88    90   am
    27    82    26    1
    28    82    83    1
    29    15    67    1
    30    78    24    1
    31    78    77    1
    32    67    65   ar
    33    68    16    1
    34    68    66   ar
    35    90    31    1
    36    90    91    1
    37    33    94    1
    38    77    83    1
    39    77    73   am
    40    83    23    1
    41    83    27    1
    42    30    94    1
    43    65    66   ar
    44    65    64    1
    45    74    73    2
    46    66    14    1
    47    94    91    1
    48    94    34    1
    49    73    72    1
    50    20    71    1
    51    32    91    1
    52    91    92    1
    53    18    64    1
    54    12    61    1
    55    64    61    1
    56    64    13    1
    57    45   100    1
    58    71    72    1
    59    71    62   am
    60    59    51    2
    61    72    21    1
    62    72    75    1
    63    61    62    1
    64    61    60    1
    65    92    93    2
    66    92    96   am
    67    49   100    1
    68   100    96    1
    69   100   102    1
    70    62    63    2
    71    47   101    1
    72    22    75    1
    73    51    60   am
    74    51    52    1
    75    96    98    1
    76     2    53    1
    77    75    76    1
    78    75    19    1
    79    60    11    1
    80    76    95    1
    81    42   102    1
    82   102   101    1
    83   102    99    1
    84   101    46    1
    85   101    50    1
    86    53    52    2
    87    53    54    1
    88    52     1    1
    89     4    55    1
    90    98    95    1
    91    98    43    1
    92    98    99    1
    93    95    97    2
    94    99    44    1
    95    99    48    1
    96    55    54    2
    97    55    56    1
    98    54     3    1
    99     6    57    1
   100    57    56    2
   101    57    58    1
   102    56     5    1
   103    36    58    1
   104    58    37    1
   105    58    35    1
