@<TRIPOS>MOLECULE
139.67140
 102 105 0 0 0
SMALL
GASTEIGER

@<TRIPOS>ATOM
      1 H          31.6420    4.6340  118.3520 H       1  UNL1        0.0669
      2 H          33.1830    4.3610  121.0050 H       1  UNL1        0.0619
      3 H          34.0780    4.5980  118.0260 H       1  UNL1        0.0618
      4 H          35.6310    4.3580  120.6690 H       1  UNL1        0.0617
      5 H          36.4910    4.5430  117.6790 H       1  UNL1        0.0614
      6 H          38.0650    4.3000  120.3080 H       1  UNL1        0.0569
      7 H          24.5750    1.6510  119.3280 H       1  UNL1        0.0429
      8 H          23.4870    0.3580  118.7870 H       1  UNL1        0.0429
      9 H          24.8530    0.8750  117.7590 H       1  UNL1        0.0429
     10 H          26.8920   10.2210  118.9660 H       1  UNL1        0.0618
     11 H          29.4330    4.5840  118.6140 H       1  UNL1        0.1498
     12 H          28.2160    4.5540  121.3340 H       1  UNL1        0.0598
     13 H          26.0430    4.5650  120.0830 H       1  UNL1        0.0336
     14 H          28.0240    6.8000  121.2760 H       1  UNL1        0.0620
     15 H          25.8960    6.3000  117.5450 H       1  UNL1        0.0620
     16 H          27.9690    9.2280  120.9660 H       1  UNL1        0.0618
     17 H          25.8520    8.7470  117.2630 H       1  UNL1        0.0618
     18 H          26.9030    4.4020  118.5580 H       1  UNL1        0.0336
     19 H          30.5350   -0.8600  121.1330 H       1  UNL1        0.0721
     20 H          29.3020    2.6290  121.9340 H       1  UNL1        0.1496
     21 H          28.4250    0.1770  120.4800 H       1  UNL1        0.0629
     22 H          30.9670    0.5170  122.1270 H       1  UNL1        0.0721
     23 H          26.4760   -0.3700  124.5480 H       1  UNL1        0.0465
     24 H          27.3220   -1.6090  120.7500 H       1  UNL1        0.0597
     25 H          26.2650   -3.2840  122.0490 H       1  UNL1        0.0288
     26 H          25.0710   -2.6920  124.0770 H       1  UNL1        0.0281
     27 H          27.3410   -1.9090  124.3150 H       1  UNL1        0.0465
     28 H          24.7840   -2.5420  121.4110 H       1  UNL1        0.0288
     29 H          24.5440   -1.1500  123.3800 H       1  UNL1        0.0281
     30 H          29.2280    2.0400  117.4860 H       1  UNL1        0.0252
     31 H          27.2730    0.5880  118.3200 H       1  UNL1        0.1495
     32 H          27.6030    0.2890  115.5920 H       1  UNL1        0.0592
     33 H          27.7680    2.4610  116.6010 H       1  UNL1        0.0252
     34 H          29.2790    2.1640  115.7250 H       1  UNL1        0.0252
     35 H          38.8790    4.4700  117.3140 H       1  UNL1        0.0272
     36 H          39.6880    3.4690  118.5310 H       1  UNL1        0.0272
     37 H          39.7580    5.2380  118.6480 H       1  UNL1        0.0272
     38 H          24.7160   -3.1400  117.5440 H       1  UNL1        0.0252
     39 H          26.1860   -2.2550  119.2240 H       1  UNL1        0.0594
     40 H          23.9840   -1.5650  117.2460 H       1  UNL1        0.0252
     41 H          23.7220   -2.3820  118.7990 H       1  UNL1        0.0252
     42 H          33.1770   -1.1620  117.7650 H       1  UNL1        0.0314
     43 H          29.5100   -0.8960  118.8390 H       1  UNL1        0.0616
     44 H          30.9010   -2.8460  118.9210 H       1  UNL1        0.0292
     45 H          32.0970   -1.1830  115.6690 H       1  UNL1        0.0467
     46 H          32.5100   -4.1480  117.5150 H       1  UNL1        0.0233
     47 H          33.8730   -3.3200  116.7440 H       1  UNL1        0.0233
     48 H          31.9830   -1.7310  119.7760 H       1  UNL1        0.0292
     49 H          31.1620   -2.6520  116.0310 H       1  UNL1        0.0467
     50 H          33.7970   -3.4490  118.5100 H       1  UNL1        0.0233
     51 C          30.6260    4.4210  120.3020 C.2     1  UNL1        0.2375
     52 C          31.8080    4.5410  119.4180 C.2     1  UNL1        0.0001
     53 C          33.0450    4.4750  119.9310 C.2     1  UNL1       -0.0569
     54 C          34.2290    4.5190  119.1020 C.2     1  UNL1       -0.0616
     55 C          35.4740    4.4450  119.5960 C.2     1  UNL1       -0.0621
     56 C          36.6480    4.4640  118.7530 C.2     1  UNL1       -0.0659
     57 C          37.8960    4.3820  119.2370 C.2     1  UNL1       -0.0871
     58 C          39.1200    4.3910  118.3780 C.3     1  UNL1       -0.0465
     59 O          30.7000    4.2330  121.5110 O.2     1  UNL1       -0.2708
     60 N          29.4360    4.4810  119.6210 N.am    1  UNL1       -0.3002
     61 C          28.1650    4.2090  120.2950 C.3     1  UNL1        0.1036
     62 C          28.0350    2.6740  120.2970 C.2     1  UNL1        0.2344
     63 O          27.4690    2.0390  119.4060 O.2     1  UNL1       -0.2738
     64 C          26.9710    4.8400  119.5640 C.3     1  UNL1       -0.0006
     65 C          26.9890    6.3480  119.4180 C.ar    1  UNL1       -0.0451
     66 C          27.5510    7.1960  120.3810 C.ar    1  UNL1       -0.0585
     67 C          26.3660    6.9280  118.3000 C.ar    1  UNL1       -0.0585
     68 C          27.5210    8.5830  120.2140 C.ar    1  UNL1       -0.0615
     69 C          26.3340    8.3140  118.1360 C.ar    1  UNL1       -0.0615
     70 C          26.9160    9.1410  119.0920 C.ar    1  UNL1       -0.0617
     71 N          28.7710    2.0520  121.2790 N.am    1  UNL1       -0.2997
     72 C          28.9440    0.6100  121.3310 C.3     1  UNL1        0.1340
     73 C          28.3810    0.0880  122.6620 C.2     1  UNL1        0.2399
     74 O          28.9010    0.4150  123.7320 O.2     1  UNL1       -0.2734
     75 C          30.4230    0.2230  121.2220 C.3     1  UNL1        0.1193
     76 O          31.0840    0.9180  120.1330 O.3     1  UNL1       -0.4610
     77 N          27.2630   -0.7160  122.6240 N.am    1  UNL1       -0.2883
     78 C          26.5670   -1.2300  121.4410 C.3     1  UNL1        0.1025
     79 C          25.6890   -0.1500  120.7570 C.2     1  UNL1        0.2365
     80 O          25.2700    0.8130  121.4060 O.2     1  UNL1       -0.2735
     81 C          25.6880   -2.3530  121.9970 C.3     1  UNL1       -0.0243
     82 C          25.3650   -1.8770  123.4100 C.3     1  UNL1       -0.0350
     83 C          26.6500   -1.1960  123.8510 C.3     1  UNL1        0.0156
     84 N          25.3550   -0.3250  119.4130 N.am    1  UNL1       -0.2917
     85 C          24.5250    0.7030  118.7870 C.3     1  UNL1        0.0040
     86 C          25.7050   -1.5060  118.5920 C.3     1  UNL1        0.0991
     87 C          24.4590   -2.1840  118.0140 C.3     1  UNL1       -0.0379
     88 C          26.7350   -1.2300  117.4680 C.2     1  UNL1        0.2339
     89 O          26.9280   -2.0460  116.5680 O.2     1  UNL1       -0.2738
     90 N          27.5130   -0.0970  117.5970 N.am    1  UNL1       -0.3027
     91 C          28.2900    0.3650  116.4480 C.3     1  UNL1        0.0968
     92 C          29.5240   -0.4730  116.0320 C.2     1  UNL1        0.2363
     93 O          29.7560   -0.6020  114.8200 O.2     1  UNL1       -0.2736
     94 C          28.6670    1.8370  116.5720 C.3     1  UNL1       -0.0381
     95 C          31.0900    0.5850  118.8220 C.2     1  UNL1        0.3279
     96 N          30.4420   -0.9370  116.9500 N.am    1  UNL1       -0.2862
     97 O          31.5890    1.3590  118.0080 O.2     1  UNL1       -0.2487
     98 C          30.5050   -0.7780  118.4150 C.3     1  UNL1        0.1233
     99 C          31.4600   -1.9050  118.8320 C.3     1  UNL1       -0.0199
    100 C          31.5640   -1.7260  116.4580 C.3     1  UNL1        0.0182
    101 C          33.1980   -3.3010  117.6060 C.3     1  UNL1       -0.0609
    102 C          32.4510   -1.9800  117.6700 C.3     1  UNL1       -0.0258
@<TRIPOS>BOND
     1    93    92    2
     2    32    91    1
     3    45   100    1
     4    34    94    1
     5    49   100    1
     6    92    91    1
     7    92    96   am
     8    91    94    1
     9    91    90    1
    10   100    96    1
    11   100   102    1
    12    89    88    2
    13    94    33    1
    14    94    30    1
    15    47   101    1
    16    96    98    1
    17    40    87    1
    18    17    69    1
    19    35    58    1
    20    88    90   am
    21    88    86    1
    22    46   101    1
    23    38    87    1
    24    15    67    1
    25    90    31    1
    26   101   102    1
    27   101    50    1
    28   102    42    1
    29   102    99    1
    30     5    56    1
    31     9    85    1
    32    97    95    2
    33    87    86    1
    34    87    41    1
    35     3    54    1
    36    69    67   ar
    37    69    70   ar
    38    67    65   ar
    39     1    52    1
    40    58    36    1
    41    58    37    1
    42    58    57    1
    43    98    95    1
    44    98    99    1
    45    98    43    1
    46    18    64    1
    47    86    39    1
    48    86    84    1
    49    11    60    1
    50    56    57    2
    51    56    55    1
    52    85     8    1
    53    85     7    1
    54    85    84    1
    55    95    76    1
    56    99    44    1
    57    99    48    1
    58    10    70    1
    59    70    68   ar
    60    54    55    2
    61    54    53    1
    62    57     6    1
    63    63    62    2
    64    84    79   am
    65    52    53    2
    66    52    51    1
    67    65    64    1
    68    65    66   ar
    69    64    13    1
    70    64    61    1
    71    55     4    1
    72    60    61    1
    73    60    51   am
    74    53     2    1
    75    76    75    1
    76    68    66   ar
    77    68    16    1
    78    61    62    1
    79    61    12    1
    80    62    71   am
    81    51    59    2
    82    66    14    1
    83    21    72    1
    84    24    78    1
    85    79    80    2
    86    79    78    1
    87    19    75    1
    88    75    72    1
    89    75    22    1
    90    71    72    1
    91    71    20    1
    92    72    73    1
    93    28    81    1
    94    78    81    1
    95    78    77    1
    96    81    25    1
    97    81    82    1
    98    77    73   am
    99    77    83    1
   100    73    74    2
   101    29    82    1
   102    82    83    1
   103    82    26    1
   104    83    27    1
   105    83    23    1
