@<TRIPOS>MOLECULE
123.98521
 102 105 0 0 0
SMALL
GASTEIGER

@<TRIPOS>ATOM
      1 H          24.5800    0.8700  127.5770 H       1  UNL1        0.0669
      2 H          24.6750    3.9480  127.7310 H       1  UNL1        0.0619
      3 H          22.6780    1.8550  128.8970 H       1  UNL1        0.0618
      4 H          22.7970    4.9280  128.9190 H       1  UNL1        0.0617
      5 H          20.7720    2.8690  130.0870 H       1  UNL1        0.0614
      6 H          20.8920    5.9410  130.0640 H       1  UNL1        0.0569
      7 H          27.3610    3.5880  115.2680 H       1  UNL1        0.0429
      8 H          28.5020    2.3630  114.7020 H       1  UNL1        0.0429
      9 H          29.0840    3.7540  115.6550 H       1  UNL1        0.0429
     10 H          32.2660    0.5780  121.0770 H       1  UNL1        0.0618
     11 H          25.9500    0.1470  125.9270 H       1  UNL1        0.1498
     12 H          28.1590    1.9400  124.9970 H       1  UNL1        0.0598
     13 H          27.7150   -1.0630  124.4180 H       1  UNL1        0.0336
     14 H          28.3300   -0.8270  122.0270 H       1  UNL1        0.0620
     15 H          30.8570    0.8070  125.1250 H       1  UNL1        0.0620
     16 H          30.1230   -0.4320  120.3770 H       1  UNL1        0.0618
     17 H          32.6390    1.1790  123.4560 H       1  UNL1        0.0618
     18 H          28.7690   -0.4680  125.6770 H       1  UNL1        0.0336
     19 H          25.4090    4.8870  122.6770 H       1  UNL1        0.0721
     20 H          27.3660    3.2470  123.4440 H       1  UNL1        0.1496
     21 H          24.9830    2.4890  121.9680 H       1  UNL1        0.0629
     22 H          25.0070    4.6640  120.9790 H       1  UNL1        0.0721
     23 H          23.8990    2.4050  119.8890 H       1  UNL1        0.0465
     24 H          27.3900    0.6160  118.7890 H       1  UNL1        0.0597
     25 H          25.5530   -0.7580  118.4400 H       1  UNL1        0.0288
     26 H          23.3140    0.1430  118.4320 H       1  UNL1        0.0281
     27 H          24.3170    0.7900  120.5190 H       1  UNL1        0.0465
     28 H          25.5020    0.0390  116.8560 H       1  UNL1        0.0288
     29 H          23.8440    1.6300  117.6350 H       1  UNL1        0.0281
     30 H          31.6320    5.7010  118.0400 H       1  UNL1        0.0252
     31 H          28.7460    4.0840  117.8480 H       1  UNL1        0.1495
     32 H          29.9690    4.4260  120.2900 H       1  UNL1        0.0592
     33 H          32.2110    4.5180  119.2170 H       1  UNL1        0.0252
     34 H          31.7680    6.1450  119.7460 H       1  UNL1        0.0252
     35 H          18.8740    3.8760  131.2090 H       1  UNL1        0.0272
     36 H          18.4360    5.4280  130.4710 H       1  UNL1        0.0272
     37 H          19.3310    5.3950  132.0020 H       1  UNL1        0.0272
     38 H          31.1090    0.5110  116.7650 H       1  UNL1        0.0252
     39 H          29.0600    0.8080  117.9810 H       1  UNL1        0.0594
     40 H          30.7450    1.8420  115.6710 H       1  UNL1        0.0252
     41 H          29.7630    0.3620  115.6240 H       1  UNL1        0.0252
     42 H          26.7850    8.0780  121.9010 H       1  UNL1        0.0314
     43 H          29.9710    5.9600  121.8210 H       1  UNL1        0.0616
     44 H          29.7960    8.2870  122.3970 H       1  UNL1        0.0292
     45 H          27.1900    7.9740  119.5790 H       1  UNL1        0.0467
     46 H          28.7430   10.4220  121.6110 H       1  UNL1        0.0233
     47 H          27.0090   10.4640  121.2510 H       1  UNL1        0.0233
     48 H          28.5640    7.6220  123.4880 H       1  UNL1        0.0292
     49 H          28.7600    8.8000  119.6950 H       1  UNL1        0.0467
     50 H          27.5630   10.2050  122.9140 H       1  UNL1        0.0233
     51 C          26.1390    2.0980  126.5910 C.2     1  UNL1        0.2375
     52 C          24.9300    1.8820  127.4230 C.2     1  UNL1        0.0001
     53 C          24.2870    2.9470  127.9230 C.2     1  UNL1       -0.0569
     54 C          23.0670    2.8500  128.6930 C.2     1  UNL1       -0.0616
     55 C          22.4080    3.9340  129.1300 C.2     1  UNL1       -0.0621
     56 C          21.1700    3.8580  129.8700 C.2     1  UNL1       -0.0659
     57 C          20.5030    4.9480  130.2790 C.2     1  UNL1       -0.0871
     58 C          19.2140    4.9020  131.0330 C.3     1  UNL1       -0.0465
     59 O          26.6890    3.1870  126.4940 O.2     1  UNL1       -0.2708
     60 N          26.5280    0.9770  125.9050 N.am    1  UNL1       -0.3002
     61 C          27.5090    1.0740  124.8220 C.3     1  UNL1        0.1036
     62 C          26.6640    1.2950  123.5550 C.2     1  UNL1        0.2344
     63 O          25.8930    0.4390  123.1170 O.2     1  UNL1       -0.2738
     64 C          28.3420   -0.2070  124.7000 C.3     1  UNL1       -0.0006
     65 C          29.4660   -0.0510  123.7020 C.ar    1  UNL1       -0.0451
     66 C          29.2750   -0.4040  122.3590 C.ar    1  UNL1       -0.0585
     67 C          30.6880    0.5140  124.0910 C.ar    1  UNL1       -0.0585
     68 C          30.2850   -0.1840  121.4220 C.ar    1  UNL1       -0.0615
     69 C          31.6980    0.7290  123.1520 C.ar    1  UNL1       -0.0615
     70 C          31.4930    0.3850  121.8170 C.ar    1  UNL1       -0.0617
     71 N          26.7340    2.5600  123.0270 N.am    1  UNL1       -0.2997
     72 C          25.9690    2.9450  121.8480 C.3     1  UNL1        0.1340
     73 C          26.6680    2.4050  120.5880 C.2     1  UNL1        0.2399
     74 O          27.8870    2.5210  120.4320 O.2     1  UNL1       -0.2734
     75 C          25.7750    4.4630  121.7330 C.3     1  UNL1        0.1193
     76 O          26.9360    5.2000  121.3010 O.3     1  UNL1       -0.4610
     77 N          25.8950    1.7950  119.6250 N.am    1  UNL1       -0.2883
     78 C          26.5230    1.1790  118.4560 C.3     1  UNL1        0.1025
     79 C          26.8520    2.2290  117.3600 C.2     1  UNL1        0.2365
     80 O          25.9670    3.0130  116.9920 O.2     1  UNL1       -0.2735
     81 C          25.4520    0.2110  117.9360 C.3     1  UNL1       -0.0243
     82 C          24.1370    0.8600  118.3580 C.3     1  UNL1       -0.0350
     83 C          24.4750    1.4960  119.6960 C.3     1  UNL1        0.0156
     84 N          28.1090    2.2390  116.7490 N.am    1  UNL1       -0.2917
     85 C          28.2680    3.0380  115.5310 C.3     1  UNL1        0.0040
     86 C          29.3390    1.6390  117.3340 C.3     1  UNL1        0.0991
     87 C          30.2890    1.0580  116.2850 C.3     1  UNL1       -0.0379
     88 C          30.1230    2.6120  118.2560 C.2     1  UNL1        0.2339
     89 O          31.1430    2.2580  118.8460 O.2     1  UNL1       -0.2738
     90 N          29.6120    3.8830  118.3390 N.am    1  UNL1       -0.3027
     91 C          30.0600    4.8790  119.3000 C.3     1  UNL1        0.0968
     92 C          29.1450    6.1140  119.1540 C.2     1  UNL1        0.2363
     93 O          28.7880    6.4980  118.0350 O.2     1  UNL1       -0.2736
     94 C          31.4980    5.3320  119.0630 C.3     1  UNL1       -0.0381
     95 C          27.9230    5.4240  122.2080 C.2     1  UNL1        0.3279
     96 N          28.7930    6.8130  120.2870 N.am    1  UNL1       -0.2862
     97 O          27.9380    4.9570  123.3420 O.2     1  UNL1       -0.2487
     98 C          28.9850    6.4120  121.6840 C.3     1  UNL1        0.1233
     99 C          28.8470    7.7380  122.4370 C.3     1  UNL1       -0.0199
    100 C          28.0920    8.0850  120.1890 C.3     1  UNL1        0.0182
    101 C          27.7740    9.9780  121.8640 C.3     1  UNL1       -0.0609
    102 C          27.7710    8.4770  121.6310 C.3     1  UNL1       -0.0258
@<TRIPOS>BOND
     1     8    85    1
     2     7    85    1
     3    85     9    1
     4    85    84    1
     5    41    87    1
     6    40    87    1
     7    87    38    1
     8    87    86    1
     9    84    86    1
    10    84    79   am
    11    28    81    1
    12    80    79    2
    13    86    39    1
    14    86    88    1
    15    79    78    1
    16    29    82    1
    17    31    90    1
    18    81    82    1
    19    81    25    1
    20    81    78    1
    21    93    92    2
    22    30    94    1
    23    88    90   am
    24    88    89    2
    25    90    91    1
    26    82    26    1
    27    82    83    1
    28    78    24    1
    29    78    77    1
    30    94    33    1
    31    94    91    1
    32    94    34    1
    33    92    91    1
    34    92    96   am
    35    91    32    1
    36    45   100    1
    37    77    83    1
    38    77    73   am
    39    49   100    1
    40    83    23    1
    41    83    27    1
    42   100    96    1
    43   100   102    1
    44    96    98    1
    45    16    68    1
    46    74    73    2
    47    73    72    1
    48    22    75    1
    49    10    70    1
    50    47   101    1
    51    76    75    1
    52    76    95    1
    53    68    70   ar
    54    68    66   ar
    55    46   101    1
    56   102   101    1
    57   102    42    1
    58   102    99    1
    59    98    43    1
    60    98    95    1
    61    98    99    1
    62    75    72    1
    63    75    19    1
    64    70    69   ar
    65    72    21    1
    66    72    71    1
    67   101    50    1
    68    14    66    1
    69    95    97    2
    70    66    65   ar
    71    44    99    1
    72    99    48    1
    73    71    20    1
    74    71    62   am
    75    63    62    2
    76    69    17    1
    77    69    67   ar
    78    62    61    1
    79    65    67   ar
    80    65    64    1
    81    67    15    1
    82    13    64    1
    83    64    61    1
    84    64    18    1
    85    61    12    1
    86    61    60    1
    87    60    11    1
    88    60    51   am
    89    59    51    2
    90    51    52    1
    91    52     1    1
    92    52    53    2
    93     2    53    1
    94    53    54    1
    95    54     3    1
    96    54    55    2
    97     4    55    1
    98    55    56    1
    99    56     5    1
   100    56    57    2
   101     6    57    1
   102    57    58    1
   103    36    58    1
   104    58    35    1
   105    58    37    1
