@<TRIPOS>MOLECULE
123.11648
 102 105 0 0 0
SMALL
GASTEIGER

@<TRIPOS>ATOM
      1 H          30.8170   -4.5990  117.0350 H       1  UNL1        0.0669
      2 H          31.4230   -3.4380  114.2440 H       1  UNL1        0.0619
      3 H          32.2070   -6.1310  115.6060 H       1  UNL1        0.0618
      4 H          32.8160   -4.8770  112.8640 H       1  UNL1        0.0617
      5 H          33.5940   -7.5910  114.1820 H       1  UNL1        0.0614
      6 H          34.2190   -6.3030  111.4610 H       1  UNL1        0.0569
      7 H          27.1220   -2.0390  125.2130 H       1  UNL1        0.0429
      8 H          27.0300   -1.4080  126.8660 H       1  UNL1        0.0429
      9 H          28.5690   -2.0530  126.2300 H       1  UNL1        0.0429
     10 H          24.4950   -5.3150  119.5330 H       1  UNL1        0.0618
     11 H          29.7450   -3.0950  118.3620 H       1  UNL1        0.1498
     12 H          29.3740   -0.3690  117.4650 H       1  UNL1        0.0598
     13 H          27.3600   -1.2770  116.4330 H       1  UNL1        0.0336
     14 H          26.9390   -3.6810  116.4060 H       1  UNL1        0.0620
     15 H          26.0350   -1.3330  119.9170 H       1  UNL1        0.0620
     16 H          25.6070   -5.5460  117.3260 H       1  UNL1        0.0618
     17 H          24.7210   -3.2050  120.8190 H       1  UNL1        0.0618
     18 H          26.9140   -0.2850  117.7940 H       1  UNL1        0.0336
     19 H          30.1460    2.0880  122.3460 H       1  UNL1        0.0721
     20 H          28.1880    0.9270  119.2480 H       1  UNL1        0.1496
     21 H          28.5660   -0.0500  121.9630 H       1  UNL1        0.0629
     22 H          30.4540    1.9520  120.6090 H       1  UNL1        0.0721
     23 H          25.2240    2.7820  122.0260 H       1  UNL1        0.0465
     24 H          28.7200    2.0030  124.0170 H       1  UNL1        0.0597
     25 H          27.4400    3.7490  124.9820 H       1  UNL1        0.0288
     26 H          25.0700    3.9670  124.4780 H       1  UNL1        0.0281
     27 H          26.3630    4.0880  122.4330 H       1  UNL1        0.0465
     28 H          26.6950    2.4340  125.9150 H       1  UNL1        0.0288
     29 H          24.8910    2.2080  124.3310 H       1  UNL1        0.0281
     30 H          32.8590   -1.9680  126.2700 H       1  UNL1        0.0252
     31 H          30.1410   -1.3120  125.0390 H       1  UNL1        0.1495
     32 H          32.4410    0.1420  124.0820 H       1  UNL1        0.0592
     33 H          33.2590   -0.2510  126.3880 H       1  UNL1        0.0252
     34 H          34.1400   -1.2910  125.2550 H       1  UNL1        0.0252
     35 H          34.9700   -9.0130  112.7790 H       1  UNL1        0.0272
     36 H          36.0520   -8.0460  111.7600 H       1  UNL1        0.0272
     37 H          34.5970   -8.7840  111.0610 H       1  UNL1        0.0272
     38 H          29.7760    0.9020  128.3580 H       1  UNL1        0.0252
     39 H          28.7070    1.6900  126.3270 H       1  UNL1        0.0594
     40 H          29.5040   -0.7830  127.9330 H       1  UNL1        0.0252
     41 H          28.1220    0.2720  128.2970 H       1  UNL1        0.0252
     42 H          32.0920   -1.9570  119.5790 H       1  UNL1        0.0314
     43 H          33.9620   -0.3350  122.4890 H       1  UNL1        0.0616
     44 H          34.8670   -1.7830  120.8410 H       1  UNL1        0.0292
     45 H          31.4030   -3.3510  121.3980 H       1  UNL1        0.0467
     46 H          34.4020   -3.9710  119.7120 H       1  UNL1        0.0233
     47 H          32.8180   -4.2600  118.9750 H       1  UNL1        0.0233
     48 H          34.1060   -0.6180  119.7420 H       1  UNL1        0.0292
     49 H          33.0700   -3.7840  121.8270 H       1  UNL1        0.0467
     50 H          33.9070   -3.0420  118.2880 H       1  UNL1        0.0233
     51 C          30.0890   -2.6220  116.3550 C.2     1  UNL1        0.2375
     52 C          30.8170   -3.9060  116.2040 C.2     1  UNL1        0.0001
     53 C          31.4510   -4.1690  115.0520 C.2     1  UNL1       -0.0569
     54 C          32.1890   -5.3890  114.8110 C.2     1  UNL1       -0.0616
     55 C          32.8350   -5.6220  113.6580 C.2     1  UNL1       -0.0621
     56 C          33.5770   -6.8350  113.4000 C.2     1  UNL1       -0.0659
     57 C          34.2300   -7.0530  112.2490 C.2     1  UNL1       -0.0871
     58 C          35.0040   -8.2970  111.9520 C.3     1  UNL1       -0.0465
     59 O          29.9460   -1.8260  115.4360 O.2     1  UNL1       -0.2708
     60 N          29.6070   -2.4200  117.6170 N.am    1  UNL1       -0.3002
     61 C          28.8790   -1.2060  117.9750 C.3     1  UNL1        0.1036
     62 C          29.0440   -0.9540  119.4860 C.2     1  UNL1        0.2344
     63 O          29.5420   -1.7830  120.2450 O.2     1  UNL1       -0.2738
     64 C          27.4070   -1.2300  117.5290 C.3     1  UNL1       -0.0006
     65 C          26.5900   -2.3700  118.0930 C.ar    1  UNL1       -0.0451
     66 C          26.4590   -3.5670  117.3760 C.ar    1  UNL1       -0.0585
     67 C          25.9550   -2.2500  119.3370 C.ar    1  UNL1       -0.0585
     68 C          25.7070   -4.6230  117.8920 C.ar    1  UNL1       -0.0615
     69 C          25.2060   -3.3090  119.8520 C.ar    1  UNL1       -0.0615
     70 C          25.0810   -4.4940  119.1300 C.ar    1  UNL1       -0.0617
     71 N          28.6300    0.2840  119.9030 N.am    1  UNL1       -0.2997
     72 C          28.7540    0.7840  121.2810 C.3     1  UNL1        0.1340
     73 C          27.6600    1.8550  121.4100 C.2     1  UNL1        0.2399
     74 O          27.2430    2.4160  120.3860 O.2     1  UNL1       -0.2734
     75 C          30.1410    1.3950  121.5010 C.3     1  UNL1        0.1193
     76 O          31.0640    0.3370  121.8220 O.3     1  UNL1       -0.4610
     77 N          27.1500    2.1820  122.6440 N.am    1  UNL1       -0.2883
     78 C          27.6430    1.8310  123.9890 C.3     1  UNL1        0.1025
     79 C          27.3520    0.3700  124.4210 C.2     1  UNL1        0.2365
     80 O          26.5270   -0.3030  123.7970 O.2     1  UNL1       -0.2735
     81 C          26.8830    2.8070  124.9040 C.3     1  UNL1       -0.0243
     82 C          25.5750    3.0490  124.1650 C.3     1  UNL1       -0.0350
     83 C          26.0150    3.0890  122.7170 C.3     1  UNL1        0.0156
     84 N          28.0220   -0.1370  125.5440 N.am    1  UNL1       -0.2917
     85 C          27.6690   -1.4870  125.9810 C.3     1  UNL1        0.0040
     86 C          29.0090    0.6410  126.3440 C.3     1  UNL1        0.0991
     87 C          29.1040    0.2290  127.8140 C.3     1  UNL1       -0.0379
     88 C          30.4250    0.6220  125.7320 C.2     1  UNL1        0.2339
     89 O          31.1970    1.5690  125.8760 O.2     1  UNL1       -0.2738
     90 N          30.8080   -0.5540  125.1500 N.am    1  UNL1       -0.3027
     91 C          32.1400   -0.7710  124.5980 C.3     1  UNL1        0.0968
     92 C          32.0220   -1.9750  123.6490 C.2     1  UNL1        0.2363
     93 O          31.4530   -3.0030  124.0350 O.2     1  UNL1       -0.2736
     94 C          33.1560   -1.0870  125.6890 C.3     1  UNL1       -0.0381
     95 C          32.3340    0.4650  121.3550 C.2     1  UNL1        0.3279
     96 N          32.5300   -1.8650  122.3770 N.am    1  UNL1       -0.2862
     97 O          32.7530    1.4400  120.7420 O.2     1  UNL1       -0.2487
     98 C          33.2290   -0.7210  121.7730 C.3     1  UNL1        0.1233
     99 C          33.9090   -1.3340  120.5450 C.3     1  UNL1       -0.0199
    100 C          32.4310   -2.9780  121.4480 C.3     1  UNL1        0.0182
    101 C          33.5510   -3.4850  119.2230 C.3     1  UNL1       -0.0609
    102 C          32.9260   -2.4260  120.1130 C.3     1  UNL1       -0.0258
@<TRIPOS>BOND
     1    37    58    1
     2     6    57    1
     3    36    58    1
     4    58    57    1
     5    58    35    1
     6    57    56    2
     7     4    55    1
     8    56    55    1
     9    56     5    1
    10    55    54    2
    11     2    53    1
    12    54    53    1
    13    54     3    1
    14    53    52    2
    15    59    51    2
    16    52    51    1
    17    52     1    1
    18    51    60   am
    19    14    66    1
    20    13    64    1
    21    16    68    1
    22    66    68   ar
    23    66    65   ar
    24    12    61    1
    25    64    18    1
    26    64    61    1
    27    64    65    1
    28    60    61    1
    29    60    11    1
    30    68    70   ar
    31    61    62    1
    32    65    67   ar
    33    50   101    1
    34    47   101    1
    35    70    10    1
    36    70    69   ar
    37   101    46    1
    38   101   102    1
    39    20    71    1
    40    67    69   ar
    41    67    15    1
    42    62    71   am
    43    62    63    2
    44    42   102    1
    45    48    99    1
    46    69    17    1
    47    71    72    1
    48   102    99    1
    49   102   100    1
    50    74    73    2
    51    99    44    1
    52    99    98    1
    53    22    75    1
    54    97    95    2
    55    72    73    1
    56    72    75    1
    57    72    21    1
    58    95    98    1
    59    95    76    1
    60    45   100    1
    61    73    77   am
    62   100    49    1
    63   100    96    1
    64    75    76    1
    65    75    19    1
    66    98    96    1
    67    98    43    1
    68    23    83    1
    69    96    92   am
    70    27    83    1
    71    77    83    1
    72    77    78    1
    73    83    82    1
    74    92    93    2
    75    92    91    1
    76    80    79    2
    77    78    24    1
    78    78    79    1
    79    78    81    1
    80    32    91    1
    81    82    29    1
    82    82    26    1
    83    82    81    1
    84    79    84   am
    85    91    90    1
    86    91    94    1
    87    81    25    1
    88    81    28    1
    89    31    90    1
    90    90    88   am
    91     7    85    1
    92    34    94    1
    93    84    85    1
    94    84    86    1
    95    94    30    1
    96    94    33    1
    97    88    89    2
    98    88    86    1
    99    85     9    1
   100    85     8    1
   101    39    86    1
   102    86    87    1
   103    87    40    1
   104    87    41    1
   105    87    38    1
