@<TRIPOS>MOLECULE
148.97848
 102 105 0 0 0
SMALL
GASTEIGER

@<TRIPOS>ATOM
      1 H          29.8700    3.6800  126.4480 H       1  UNL1        0.0669
      2 H          31.6260    4.1090  123.9510 H       1  UNL1        0.0619
      3 H          30.7350    6.0050  126.2600 H       1  UNL1        0.0618
      4 H          32.5240    6.3770  123.7860 H       1  UNL1        0.0617
      5 H          31.5760    8.2990  126.0480 H       1  UNL1        0.0614
      6 H          33.3660    8.6690  123.5760 H       1  UNL1        0.0569
      7 H          23.3950    0.7060  116.6250 H       1  UNL1        0.0429
      8 H          23.9730    2.1070  115.7250 H       1  UNL1        0.0429
      9 H          23.1430    2.3310  117.2920 H       1  UNL1        0.0429
     10 H          27.2830   -5.7530  123.8870 H       1  UNL1        0.0618
     11 H          28.8690    1.6680  126.4340 H       1  UNL1        0.1498
     12 H          29.6550   -0.3750  124.3940 H       1  UNL1        0.0598
     13 H          27.6060   -0.6010  126.6910 H       1  UNL1        0.0336
     14 H          25.9860   -2.0140  125.5430 H       1  UNL1        0.0620
     15 H          30.1960   -2.9460  125.3180 H       1  UNL1        0.0620
     16 H          25.4590   -4.1950  124.5200 H       1  UNL1        0.0618
     17 H          29.6470   -5.1210  124.2900 H       1  UNL1        0.0618
     18 H          29.2730   -1.1000  126.8340 H       1  UNL1        0.0336
     19 H          26.8490    4.0000  121.8130 H       1  UNL1        0.0721
     20 H          29.0760    1.1280  122.7720 H       1  UNL1        0.1496
     21 H          26.1310    1.5700  122.4090 H       1  UNL1        0.0629
     22 H          28.4020    3.6150  122.5660 H       1  UNL1        0.0721
     23 H          25.8180   -0.6850  121.5060 H       1  UNL1        0.0465
     24 H          27.5780    0.8220  118.1330 H       1  UNL1        0.0597
     25 H          28.2540   -1.4040  118.5760 H       1  UNL1        0.0288
     26 H          27.0890   -2.7930  120.1310 H       1  UNL1        0.0281
     27 H          27.5790   -0.9680  121.5100 H       1  UNL1        0.0465
     28 H          26.7700   -1.7240  117.6570 H       1  UNL1        0.0288
     29 H          25.5190   -2.1350  119.6860 H       1  UNL1        0.0281
     30 H          22.3330    2.7210  120.8330 H       1  UNL1        0.0252
     31 H          24.5420    2.5260  119.6400 H       1  UNL1        0.1495
     32 H          23.4330    5.2820  119.6710 H       1  UNL1        0.0592
     33 H          21.7520    3.6630  119.4780 H       1  UNL1        0.0252
     34 H          21.6350    4.3410  121.1060 H       1  UNL1        0.0252
     35 H          32.3810   10.5720  125.8260 H       1  UNL1        0.0272
     36 H          32.5770   11.0230  124.1230 H       1  UNL1        0.0272
     37 H          33.9990   10.6120  125.1020 H       1  UNL1        0.0272
     38 H          26.9960    4.2630  116.1910 H       1  UNL1        0.0252
     39 H          26.8280    2.7330  118.0140 H       1  UNL1        0.0594
     40 H          25.4210    3.8090  115.5490 H       1  UNL1        0.0252
     41 H          26.7600    2.6440  115.5070 H       1  UNL1        0.0252
     42 H          24.6260    2.4590  124.8390 H       1  UNL1        0.0314
     43 H          24.7790    6.1310  123.7800 H       1  UNL1        0.0616
     44 H          23.1860    5.1330  125.2190 H       1  UNL1        0.0292
     45 H          23.7070    2.3390  122.6390 H       1  UNL1        0.0467
     46 H          21.6870    3.1360  125.3890 H       1  UNL1        0.0233
     47 H          22.3530    1.5120  125.1500 H       1  UNL1        0.0233
     48 H          24.6510    4.5730  126.0490 H       1  UNL1        0.0292
     49 H          22.4040    3.4950  123.0440 H       1  UNL1        0.0467
     50 H          22.8410    2.4740  126.5570 H       1  UNL1        0.0233
     51 C          30.2270    2.1030  124.9340 C.2     1  UNL1        0.2375
     52 C          30.3930    3.4500  125.5280 C.2     1  UNL1        0.0001
     53 C          31.1280    4.3680  124.8850 C.2     1  UNL1       -0.0569
     54 C          31.2710    5.7290  125.3540 C.2     1  UNL1       -0.0616
     55 C          31.9990    6.6470  124.7010 C.2     1  UNL1       -0.0621
     56 C          32.1130    8.0180  125.1440 C.2     1  UNL1       -0.0659
     57 C          32.8310    8.9390  124.4850 C.2     1  UNL1       -0.0871
     58 C          32.9500   10.3650  124.9140 C.3     1  UNL1       -0.0465
     59 O          30.7320    1.7730  123.8660 O.2     1  UNL1       -0.2708
     60 N          29.3700    1.2920  125.6380 N.am    1  UNL1       -0.3002
     61 C          28.8760    0.0460  125.0400 C.3     1  UNL1        0.1036
     62 C          27.6860    0.4890  124.1650 C.2     1  UNL1        0.2344
     63 O          26.5180    0.4810  124.5480 O.2     1  UNL1       -0.2738
     64 C          28.4600   -0.9700  126.1080 C.3     1  UNL1       -0.0006
     65 C          28.1310   -2.3210  125.5130 C.ar    1  UNL1       -0.0451
     66 C          26.7990   -2.6890  125.2790 C.ar    1  UNL1       -0.0585
     67 C          29.1540   -3.2070  125.1500 C.ar    1  UNL1       -0.0585
     68 C          26.4950   -3.9200  124.6960 C.ar    1  UNL1       -0.0615
     69 C          28.8480   -4.4380  124.5670 C.ar    1  UNL1       -0.0615
     70 C          27.5200   -4.7940  124.3390 C.ar    1  UNL1       -0.0617
     71 N          28.0760    1.0490  122.9640 N.am    1  UNL1       -0.2997
     72 C          27.1600    1.8630  122.1720 C.3     1  UNL1        0.1340
     73 C          27.3670    1.6520  120.6690 C.2     1  UNL1        0.2399
     74 O          27.8730    2.5250  119.9660 O.2     1  UNL1       -0.2734
     75 C          27.3390    3.3480  122.5370 C.3     1  UNL1        0.1193
     76 O          26.7970    3.5360  123.8540 O.3     1  UNL1       -0.4610
     77 N          26.9220    0.4610  120.1310 N.am    1  UNL1       -0.2883
     78 C          26.8440    0.2330  118.6860 C.3     1  UNL1        0.1025
     79 C          25.4000    0.5070  118.1680 C.2     1  UNL1        0.2365
     80 O          24.4780   -0.2620  118.4640 O.2     1  UNL1       -0.2735
     81 C          27.1660   -1.2620  118.5660 C.3     1  UNL1       -0.0243
     82 C          26.5720   -1.8760  119.8330 C.3     1  UNL1       -0.0350
     83 C          26.7090   -0.7760  120.8770 C.3     1  UNL1        0.0156
     84 N          25.1240    1.6470  117.4220 N.am    1  UNL1       -0.2917
     85 C          23.8360    1.7010  116.7300 C.3     1  UNL1        0.0040
     86 C          25.9000    2.9100  117.4860 C.3     1  UNL1        0.0991
     87 C          26.2870    3.4310  116.1030 C.3     1  UNL1       -0.0379
     88 C          25.1400    3.9900  118.3090 C.2     1  UNL1        0.2339
     89 O          25.1780    5.1830  118.0190 O.2     1  UNL1       -0.2738
     90 N          24.4850    3.5150  119.4340 N.am    1  UNL1       -0.3027
     91 C          23.6350    4.3750  120.2570 C.3     1  UNL1        0.0968
     92 C          24.3770    4.9320  121.5050 C.2     1  UNL1        0.2363
     93 O          25.1770    5.8650  121.3590 O.2     1  UNL1       -0.2736
     94 C          22.2660    3.7410  120.4440 C.3     1  UNL1       -0.0381
     95 C          26.3990    4.7950  124.1610 C.2     1  UNL1        0.3279
     96 N          24.2720    4.3590  122.7560 N.am    1  UNL1       -0.2862
     97 O          27.0790    5.5090  124.8920 O.2     1  UNL1       -0.2487
     98 C          24.9000    5.0470  123.9000 C.3     1  UNL1        0.1233
     99 C          24.1000    4.5360  125.1030 C.3     1  UNL1       -0.0199
    100 C          23.4550    3.2400  123.2040 C.3     1  UNL1        0.0182
    101 C          22.5900    2.5250  125.4920 C.3     1  UNL1       -0.0609
    102 C          23.7490    3.1010  124.6980 C.3     1  UNL1       -0.0258
@<TRIPOS>BOND
     1    41    87    1
     2    40    87    1
     3     8    85    1
     4    87    38    1
     5    87    86    1
     6     7    85    1
     7    85     9    1
     8    85    84    1
     9    84    86    1
    10    84    79   am
    11    86    39    1
    12    86    88    1
    13    28    81    1
    14    89    88    2
    15    24    78    1
    16    79    80    2
    17    79    78    1
    18    88    90   am
    19    81    25    1
    20    81    78    1
    21    81    82    1
    22    78    77    1
    23    90    31    1
    24    90    91    1
    25    33    94    1
    26    32    91    1
    27    29    82    1
    28    82    26    1
    29    82    83    1
    30    74    73    2
    31    77    73   am
    32    77    83    1
    33    91    94    1
    34    91    92    1
    35    94    30    1
    36    94    34    1
    37    73    72    1
    38    83    23    1
    39    83    27    1
    40    93    92    2
    41    92    96   am
    42    19    75    1
    43    72    21    1
    44    72    75    1
    45    72    71    1
    46    75    22    1
    47    75    76    1
    48    45   100    1
    49    96   100    1
    50    96    98    1
    51    20    71    1
    52    71    62   am
    53    49   100    1
    54   100   102    1
    55     6    57    1
    56    43    98    1
    57     4    55    1
    58    76    95    1
    59    59    51    2
    60    10    70    1
    61    98    95    1
    62    98    99    1
    63     2    53    1
    64    36    58    1
    65    95    97    2
    66    62    63    2
    67    62    61    1
    68    17    69    1
    69    70    69   ar
    70    70    68   ar
    71    12    61    1
    72    57    58    1
    73    57    56    2
    74    16    68    1
    75    69    67   ar
    76    68    66   ar
    77   102    42    1
    78   102    99    1
    79   102   101    1
    80    55    56    1
    81    55    54    2
    82    53    54    1
    83    53    52    2
    84    58    37    1
    85    58    35    1
    86    51    52    1
    87    51    60   am
    88    61    60    1
    89    61    64    1
    90    99    44    1
    91    99    48    1
    92    56     5    1
    93    67    15    1
    94    67    65   ar
    95    47   101    1
    96    66    65   ar
    97    66    14    1
    98    54     3    1
    99    46   101    1
   100   101    50    1
   101    65    64    1
   102    52     1    1
   103    60    11    1
   104    64    13    1
   105    64    18    1
