@<TRIPOS>MOLECULE
127.43973
 102 105 0 0 0
SMALL
GASTEIGER

@<TRIPOS>ATOM
      1 H          30.0070    7.0530  113.2140 H       1  UNL1        0.0669
      2 H          32.0720    4.7730  113.1020 H       1  UNL1        0.0619
      3 H          30.2110    6.0990  110.9740 H       1  UNL1        0.0618
      4 H          32.2250    3.7810  110.8260 H       1  UNL1        0.0617
      5 H          30.3800    5.1770  108.7340 H       1  UNL1        0.0614
      6 H          32.3440    2.8190  108.5560 H       1  UNL1        0.0569
      7 H          31.1040    5.6280  121.6120 H       1  UNL1        0.0429
      8 H          30.4380    7.2040  121.1550 H       1  UNL1        0.0429
      9 H          31.2580    6.2010  119.9330 H       1  UNL1        0.0429
     10 H          33.7280    8.8930  122.3810 H       1  UNL1        0.0618
     11 H          29.8760    8.0420  115.1660 H       1  UNL1        0.1498
     12 H          30.8300    6.7480  117.6130 H       1  UNL1        0.0598
     13 H          31.8770    9.5640  116.8680 H       1  UNL1        0.0336
     14 H          31.2030   10.3140  119.2140 H       1  UNL1        0.0620
     15 H          33.9100    7.0230  118.5200 H       1  UNL1        0.0620
     16 H          31.9850   10.4520  121.5490 H       1  UNL1        0.0618
     17 H          34.6900    7.1850  120.8580 H       1  UNL1        0.0618
     18 H          32.8360    8.1290  116.6650 H       1  UNL1        0.0336
     19 H          26.9400    7.9050  115.7460 H       1  UNL1        0.0721
     20 H          28.5220    6.6490  117.8620 H       1  UNL1        0.1496
     21 H          27.1390    9.2960  117.7610 H       1  UNL1        0.0629
     22 H          25.3610    8.2500  116.4870 H       1  UNL1        0.0721
     23 H          24.7900    7.4780  121.3750 H       1  UNL1        0.0465
     24 H          28.6920    8.1130  120.2800 H       1  UNL1        0.0597
     25 H          28.1970    8.8920  122.4780 H       1  UNL1        0.0288
     26 H          26.2270    8.1130  123.6500 H       1  UNL1        0.0281
     27 H          25.4250    9.1210  121.6260 H       1  UNL1        0.0465
     28 H          28.6470    7.2230  122.8860 H       1  UNL1        0.0288
     29 H          26.3370    6.5170  122.8900 H       1  UNL1        0.0281
     30 H          27.0460    0.6580  117.1560 H       1  UNL1        0.0252
     31 H          27.9440    2.2250  119.0220 H       1  UNL1        0.1495
     32 H          27.4660    3.6200  116.4380 H       1  UNL1        0.0592
     33 H          28.2800    1.2820  116.0540 H       1  UNL1        0.0252
     34 H          26.5590    1.4190  115.6380 H       1  UNL1        0.0252
     35 H          30.5200    4.2730  106.5020 H       1  UNL1        0.0272
     36 H          30.7950    2.5220  106.5450 H       1  UNL1        0.0272
     37 H          32.1310    3.6230  106.1530 H       1  UNL1        0.0272
     38 H          29.3730    2.0710  120.7090 H       1  UNL1        0.0252
     39 H          30.5920    3.9340  119.7640 H       1  UNL1        0.0594
     40 H          28.0130    3.0900  121.1850 H       1  UNL1        0.0252
     41 H          29.5810    3.2860  121.9770 H       1  UNL1        0.0252
     42 H          23.0330    5.9260  116.7810 H       1  UNL1        0.0314
     43 H          25.5690    3.6330  115.0840 H       1  UNL1        0.0616
     44 H          23.1850    3.4760  114.9510 H       1  UNL1        0.0292
     45 H          23.6830    4.5510  118.5980 H       1  UNL1        0.0467
     46 H          21.1270    3.5520  116.3890 H       1  UNL1        0.0233
     47 H          20.9060    4.8840  117.5360 H       1  UNL1        0.0233
     48 H          23.3720    5.1780  114.4870 H       1  UNL1        0.0292
     49 H          23.1180    3.0570  117.8140 H       1  UNL1        0.0467
     50 H          20.8720    5.2000  115.7920 H       1  UNL1        0.0233
     51 C          31.1630    6.4270  114.9880 C.2     1  UNL1        0.2375
     52 C          30.7610    6.3580  113.5610 C.2     1  UNL1        0.0001
     53 C          31.3170    5.4650  112.7310 C.2     1  UNL1       -0.0569
     54 C          30.9530    5.3870  111.3320 C.2     1  UNL1       -0.0616
     55 C          31.4830    4.4980  110.4790 C.2     1  UNL1       -0.0621
     56 C          31.1090    4.4470  109.0840 C.2     1  UNL1       -0.0659
     57 C          31.6160    3.5550  108.2210 C.2     1  UNL1       -0.0871
     58 C          31.2400    3.4950  106.7750 C.3     1  UNL1       -0.0465
     59 O          31.9890    5.6800  115.4930 O.2     1  UNL1       -0.2708
     60 N          30.5210    7.4340  115.6570 N.am    1  UNL1       -0.3002
     61 C          30.7480    7.7010  117.0820 C.3     1  UNL1        0.1036
     62 C          29.4830    8.4630  117.5170 C.2     1  UNL1        0.2344
     63 O          29.3690    9.6790  117.3610 O.2     1  UNL1       -0.2738
     64 C          32.0180    8.5500  117.2660 C.3     1  UNL1       -0.0006
     65 C          32.4880    8.6460  118.6990 C.ar    1  UNL1       -0.0451
     66 C          31.9550    9.6090  119.5660 C.ar    1  UNL1       -0.0585
     67 C          33.4760    7.7740  119.1780 C.ar    1  UNL1       -0.0585
     68 C          32.3970    9.6930  120.8880 C.ar    1  UNL1       -0.0615
     69 C          33.9170    7.8600  120.5000 C.ar    1  UNL1       -0.0615
     70 C          33.3760    8.8190  121.3550 C.ar    1  UNL1       -0.0617
     71 N          28.4080    7.6690  117.8730 N.am    1  UNL1       -0.2997
     72 C          27.0440    8.2080  117.8840 C.3     1  UNL1        0.1340
     73 C          26.1020    8.1030  119.1120 C.2     1  UNL1        0.2399
     74 O          24.8970    8.3540  118.9570 O.2     1  UNL1       -0.2734
     75 C          26.3080    7.7140  116.6230 C.3     1  UNL1        0.1193
     76 O          26.0060    6.3070  116.7230 O.3     1  UNL1       -0.4610
     77 N          26.5960    7.9460  120.3870 N.am    1  UNL1       -0.2883
     78 C          27.9360    7.5360  120.8140 C.3     1  UNL1        0.1025
     79 C          28.1040    6.0180  120.5690 C.2     1  UNL1        0.2365
     80 O          27.1160    5.2880  120.4430 O.2     1  UNL1       -0.2735
     81 C          27.9470    7.8370  122.3130 C.3     1  UNL1       -0.0243
     82 C          26.5020    7.5890  122.7300 C.3     1  UNL1       -0.0350
     83 C          25.7010    8.0650  121.5280 C.3     1  UNL1        0.0156
     84 N          29.3860    5.4950  120.4550 N.am    1  UNL1       -0.2917
     85 C          30.6110    6.1870  120.8100 C.3     1  UNL1        0.0040
     86 C          29.5260    4.1050  119.9680 C.3     1  UNL1        0.0991
     87 C          29.0940    3.0850  121.0160 C.3     1  UNL1       -0.0379
     88 C          28.8430    4.0240  118.5720 C.2     1  UNL1        0.2339
     89 O          28.9260    4.9550  117.7640 O.2     1  UNL1       -0.2738
     90 N          28.1580    2.8720  118.2720 N.am    1  UNL1       -0.3027
     91 C          27.2270    2.8260  117.1490 C.3     1  UNL1        0.0968
     92 C          25.8310    3.0440  117.7650 C.2     1  UNL1        0.2363
     93 O          25.5400    2.4950  118.8340 O.2     1  UNL1       -0.2736
     94 C          27.2800    1.4710  116.4600 C.3     1  UNL1       -0.0381
     95 C          25.6870    5.7170  115.5410 C.2     1  UNL1        0.3279
     96 N          24.9130    3.7990  117.0740 N.am    1  UNL1       -0.2862
     97 O          25.8360    6.2420  114.4410 O.2     1  UNL1       -0.2487
     98 C          25.0190    4.3390  115.7140 C.3     1  UNL1        0.1233
     99 C          23.5500    4.4550  115.2890 C.3     1  UNL1       -0.0199
    100 C          23.5920    4.0300  117.6390 C.3     1  UNL1        0.0182
    101 C          21.3540    4.6070  116.5760 C.3     1  UNL1       -0.0609
    102 C          22.8510    4.8600  116.5930 C.3     1  UNL1       -0.0258
@<TRIPOS>BOND
     1    37    58    1
     2    35    58    1
     3    36    58    1
     4    58    57    1
     5    57     6    1
     6    57    56    2
     7     5    56    1
     8    56    55    1
     9    55     4    1
    10    55    54    2
    11     3    54    1
    12    54    53    1
    13    53     2    1
    14    53    52    2
    15     1    52    1
    16    52    51    1
    17    97    95    2
    18    48    99    1
    19    44    99    1
    20    51    59    2
    21    51    60   am
    22    43    98    1
    23    11    60    1
    24    99    98    1
    25    99   102    1
    26    95    98    1
    27    95    76    1
    28    34    94    1
    29    60    61    1
    30    98    96    1
    31    19    75    1
    32    50   101    1
    33    33    94    1
    34    46   101    1
    35    32    91    1
    36    94    91    1
    37    94    30    1
    38    22    75    1
    39   101   102    1
    40   101    47    1
    41   102    42    1
    42   102   100    1
    43    75    76    1
    44    75    72    1
    45    18    64    1
    46    13    64    1
    47    96   100    1
    48    96    92   am
    49    61    64    1
    50    61    62    1
    51    61    12    1
    52    91    92    1
    53    91    90    1
    54    64    65    1
    55    63    62    2
    56    62    71   am
    57   100    49    1
    58   100    45    1
    59    21    72    1
    60    89    88    2
    61    92    93    2
    62    20    71    1
    63    71    72    1
    64    72    73    1
    65    90    88   am
    66    90    31    1
    67    15    67    1
    68    88    86    1
    69    65    67   ar
    70    65    66   ar
    71    74    73    2
    72    73    77   am
    73    67    69   ar
    74    14    66    1
    75    66    68   ar
    76    39    86    1
    77     9    85    1
    78    86    84    1
    79    86    87    1
    80    24    78    1
    81    77    78    1
    82    77    83    1
    83    80    79    2
    84    84    79   am
    85    84    85    1
    86    69    17    1
    87    69    70   ar
    88    79    78    1
    89    38    87    1
    90    85     8    1
    91    85     7    1
    92    78    81    1
    93    68    70   ar
    94    68    16    1
    95    87    40    1
    96    87    41    1
    97    70    10    1
    98    23    83    1
    99    83    27    1
   100    83    82    1
   101    81    25    1
   102    81    82    1
   103    81    28    1
   104    82    29    1
   105    82    26    1
