@<TRIPOS>MOLECULE
145.31663
 102 105 0 0 0
SMALL
GASTEIGER

@<TRIPOS>ATOM
      1 H          26.9360    4.2540  130.3610 H       1  UNL1        0.0669
      2 H          29.6030    3.4210  131.6610 H       1  UNL1        0.0619
      3 H          28.8200    5.7650  129.7590 H       1  UNL1        0.0618
      4 H          31.4450    4.9570  131.1420 H       1  UNL1        0.0617
      5 H          30.6680    7.2780  129.2120 H       1  UNL1        0.0614
      6 H          33.2930    6.4770  130.5980 H       1  UNL1        0.0569
      7 H          23.5120   -3.2310  126.4000 H       1  UNL1        0.0429
      8 H          23.9860   -4.2690  125.0440 H       1  UNL1        0.0429
      9 H          24.6640   -2.6180  125.2070 H       1  UNL1        0.0429
     10 H          24.3740    5.2360  137.1700 H       1  UNL1        0.0618
     11 H          25.2160    3.1710  131.3320 H       1  UNL1        0.1498
     12 H          25.7320    0.9270  133.2090 H       1  UNL1        0.0598
     13 H          23.1870    0.9210  133.4070 H       1  UNL1        0.0336
     14 H          24.6560    1.2610  135.5830 H       1  UNL1        0.0620
     15 H          23.1970    4.4890  133.1140 H       1  UNL1        0.0620
     16 H          24.9490    2.8410  137.4540 H       1  UNL1        0.0618
     17 H          23.4980    6.0510  134.9980 H       1  UNL1        0.0618
     18 H          23.1050    2.2580  132.2830 H       1  UNL1        0.0336
     19 H          25.9010   -0.1270  128.7250 H       1  UNL1        0.0721
     20 H          26.5780   -0.6590  131.9070 H       1  UNL1        0.1496
     21 H          24.7630   -1.9730  130.0240 H       1  UNL1        0.0629
     22 H          26.1790   -1.7380  128.0900 H       1  UNL1        0.0721
     23 H          26.1590   -5.3570  131.8610 H       1  UNL1        0.0465
     24 H          27.3990   -3.8200  128.3560 H       1  UNL1        0.0597
     25 H          28.0620   -6.0250  128.6080 H       1  UNL1        0.0288
     26 H          27.0130   -7.4010  130.3050 H       1  UNL1        0.0281
     27 H          27.8340   -5.3090  131.2550 H       1  UNL1        0.0465
     28 H          26.5260   -6.4850  127.8500 H       1  UNL1        0.0288
     29 H          25.4220   -6.6850  129.9740 H       1  UNL1        0.0281
     30 H          31.7680   -3.8780  126.3760 H       1  UNL1        0.0252
     31 H          29.3520   -4.5030  125.8340 H       1  UNL1        0.1495
     32 H          29.4600   -2.5050  127.8310 H       1  UNL1        0.0592
     33 H          30.9780   -4.4340  127.8570 H       1  UNL1        0.0252
     34 H          31.9220   -2.9300  127.8620 H       1  UNL1        0.0252
     35 H          32.4880    8.7760  128.6690 H       1  UNL1        0.0272
     36 H          34.0410    7.9220  128.6390 H       1  UNL1        0.0272
     37 H          33.6140    8.9390  130.0290 H       1  UNL1        0.0272
     38 H          27.5430   -4.8180  123.7890 H       1  UNL1        0.0252
     39 H          27.1730   -5.2250  126.1690 H       1  UNL1        0.0594
     40 H          26.2160   -3.6630  123.7230 H       1  UNL1        0.0252
     41 H          25.8820   -5.3770  124.0480 H       1  UNL1        0.0252
     42 H          29.6170    2.5070  127.0000 H       1  UNL1        0.0314
     43 H          30.2140   -0.8120  128.8790 H       1  UNL1        0.0616
     44 H          31.5280    1.1360  128.9470 H       1  UNL1        0.0292
     45 H          30.3350    1.1010  125.2550 H       1  UNL1        0.0467
     46 H          32.6480    2.7290  127.4040 H       1  UNL1        0.0233
     47 H          31.6900    3.6170  126.2080 H       1  UNL1        0.0233
     48 H          29.9550    1.8690  129.3060 H       1  UNL1        0.0292
     49 H          31.9210    0.7960  125.9970 H       1  UNL1        0.0467
     50 H          31.4360    3.9040  127.9370 H       1  UNL1        0.0233
     51 C          27.1410    2.4760  131.6580 C.2     1  UNL1        0.2375
     52 C          27.6390    3.6800  130.9500 C.2     1  UNL1        0.0001
     53 C          28.9310    4.0240  131.0520 C.2     1  UNL1       -0.0569
     54 C          29.4890    5.1800  130.3860 C.2     1  UNL1       -0.0616
     55 C          30.7740    5.5400  130.5140 C.2     1  UNL1       -0.0621
     56 C          31.3340    6.6920  129.8430 C.2     1  UNL1       -0.0659
     57 C          32.6190    7.0550  129.9690 C.2     1  UNL1       -0.0871
     58 C          33.2170    8.2410  129.2850 C.3     1  UNL1       -0.0465
     59 O          27.8820    1.5960  132.0760 O.2     1  UNL1       -0.2708
     60 N          25.7780    2.4620  131.7830 N.am    1  UNL1       -0.3002
     61 C          25.0800    1.3560  132.4390 C.3     1  UNL1        0.1036
     62 C          24.8230    0.3070  131.3470 C.2     1  UNL1        0.2344
     63 O          23.9040    0.4030  130.5360 O.2     1  UNL1       -0.2738
     64 C          23.7430    1.7980  133.0500 C.3     1  UNL1       -0.0006
     65 C          23.9090    2.7590  134.2060 C.ar    1  UNL1       -0.0451
     66 C          24.3990    2.3090  135.4400 C.ar    1  UNL1       -0.0585
     67 C          23.5840    4.1140  134.0580 C.ar    1  UNL1       -0.0585
     68 C          24.5660    3.1980  136.5020 C.ar    1  UNL1       -0.0615
     69 C          23.7520    5.0020  135.1220 C.ar    1  UNL1       -0.0615
     70 C          24.2430    4.5440  136.3430 C.ar    1  UNL1       -0.0617
     71 N          25.7900   -0.6630  131.2610 N.am    1  UNL1       -0.2997
     72 C          25.8050   -1.6870  130.2070 C.3     1  UNL1        0.1340
     73 C          26.5330   -2.9160  130.8050 C.2     1  UNL1        0.2399
     74 O          27.0530   -2.8300  131.9290 O.2     1  UNL1       -0.2734
     75 C          26.3910   -1.0850  128.9320 C.3     1  UNL1        0.1193
     76 O          27.8190   -0.9280  129.0180 O.3     1  UNL1       -0.4610
     77 N          26.4990   -4.1430  130.1730 N.am    1  UNL1       -0.2883
     78 C          26.5870   -4.4400  128.7320 C.3     1  UNL1        0.1025
     79 C          25.3230   -4.1850  127.8810 C.2     1  UNL1        0.2365
     80 O          24.2250   -4.0790  128.4330 O.2     1  UNL1       -0.2735
     81 C          26.9720   -5.9290  128.6800 C.3     1  UNL1       -0.0243
     82 C          26.4980   -6.4810  130.0160 C.3     1  UNL1       -0.0350
     83 C          26.7790   -5.3320  130.9590 C.3     1  UNL1        0.0156
     84 N          25.4780   -4.0500  126.4920 N.am    1  UNL1       -0.2917
     85 C          24.3430   -3.5120  125.7480 C.3     1  UNL1        0.0040
     86 C          26.7390   -4.3160  125.7420 C.3     1  UNL1        0.0991
     87 C          26.5800   -4.5560  124.2420 C.3     1  UNL1       -0.0379
     88 C          27.7470   -3.1740  125.9660 C.2     1  UNL1        0.2339
     89 O          27.4130   -2.0000  126.0770 O.2     1  UNL1       -0.2738
     90 N          29.0480   -3.5930  126.1550 N.am    1  UNL1       -0.3027
     91 C          29.9780   -2.7570  126.9060 C.3     1  UNL1        0.0968
     92 C          30.3980   -1.4840  126.1450 C.2     1  UNL1        0.2363
     93 O          30.8140   -1.5600  124.9850 O.2     1  UNL1       -0.2736
     94 C          31.2330   -3.5430  127.2720 C.3     1  UNL1       -0.0381
     95 C          28.3350    0.0780  128.2460 C.2     1  UNL1        0.3279
     96 N          30.3620   -0.2840  126.8300 N.am    1  UNL1       -0.2862
     97 O          27.6750    0.9100  127.6360 O.2     1  UNL1       -0.2487
     98 C          29.8730   -0.0300  128.1940 C.3     1  UNL1        0.1233
     99 C          30.5180    1.3090  128.5550 C.3     1  UNL1       -0.0199
    100 C          30.8530    0.9320  126.2050 C.3     1  UNL1        0.0182
    101 C          31.6540    3.1350  127.1900 C.3     1  UNL1       -0.0609
    102 C          30.5910    2.0500  127.2140 C.3     1  UNL1       -0.0258
@<TRIPOS>BOND
     1    40    87    1
     2    38    87    1
     3    41    87    1
     4    87    86    1
     5    93    92    2
     6     8    85    1
     7     9    85    1
     8    45   100    1
     9    86    88    1
    10    86    39    1
    11    86    84    1
    12    85     7    1
    13    85    84    1
    14    31    90    1
    15    88    89    2
    16    88    90   am
    17    49   100    1
    18    92    96   am
    19    92    91    1
    20    90    91    1
    21   100    96    1
    22   100   102    1
    23    47   101    1
    24    30    94    1
    25    84    79   am
    26    96    98    1
    27    91    94    1
    28    91    32    1
    29    42   102    1
    30   101   102    1
    31   101    46    1
    32   101    50    1
    33   102    99    1
    34    94    33    1
    35    94    34    1
    36    97    95    2
    37    28    81    1
    38    79    80    2
    39    79    78    1
    40    22    75    1
    41    98    95    1
    42    98    99    1
    43    98    43    1
    44    95    76    1
    45    24    78    1
    46    99    44    1
    47    99    48    1
    48    25    81    1
    49    36    58    1
    50    35    58    1
    51    81    78    1
    52    81    82    1
    53    19    75    1
    54    78    77    1
    55    75    76    1
    56    75    72    1
    57     5    56    1
    58    58    57    1
    59    58    37    1
    60     3    54    1
    61    56    57    2
    62    56    55    1
    63    57     6    1
    64    29    82    1
    65    82    26    1
    66    82    83    1
    67    21    72    1
    68    77    73   am
    69    77    83    1
    70    72    73    1
    71    72    71    1
    72     1    52    1
    73    54    55    2
    74    54    53    1
    75    55     4    1
    76    63    62    2
    77    73    74    2
    78    52    53    2
    79    52    51    1
    80    83    27    1
    81    83    23    1
    82    53     2    1
    83    71    62   am
    84    71    20    1
    85    11    60    1
    86    62    61    1
    87    51    60   am
    88    51    59    2
    89    60    61    1
    90    18    64    1
    91    61    64    1
    92    61    12    1
    93    64    13    1
    94    64    65    1
    95    15    67    1
    96    67    65   ar
    97    67    69   ar
    98    65    66   ar
    99    17    69    1
   100    69    70   ar
   101    66    14    1
   102    66    68   ar
   103    70    68   ar
   104    70    10    1
   105    68    16    1
