@<TRIPOS>MOLECULE
130.34460
 102 105 0 0 0
SMALL
GASTEIGER

@<TRIPOS>ATOM
      1 H          31.1410    4.1080  120.5170 H       1  UNL1        0.0669
      2 H          29.0700    3.1330  118.4510 H       1  UNL1        0.0619
      3 H          30.9020    5.6530  118.5730 H       1  UNL1        0.0618
      4 H          28.7910    4.6640  116.5680 H       1  UNL1        0.0617
      5 H          30.5820    7.2120  116.7050 H       1  UNL1        0.0614
      6 H          28.4890    6.2070  114.6890 H       1  UNL1        0.0569
      7 H          19.7760    1.9230  119.1500 H       1  UNL1        0.0429
      8 H          20.5580    1.0220  117.8330 H       1  UNL1        0.0429
      9 H          20.8760    2.7680  118.0520 H       1  UNL1        0.0429
     10 H          35.7160   -0.3960  123.2700 H       1  UNL1        0.0618
     11 H          30.8010    3.0530  122.4930 H       1  UNL1        0.1498
     12 H          29.6520    0.3100  122.5030 H       1  UNL1        0.0598
     13 H          30.1660    0.3740  124.9590 H       1  UNL1        0.0336
     14 H          31.5080   -1.1780  123.0160 H       1  UNL1        0.0620
     15 H          32.9410    2.4140  124.9420 H       1  UNL1        0.0620
     16 H          33.8330   -1.8400  122.5510 H       1  UNL1        0.0618
     17 H          35.2600    1.7260  124.4700 H       1  UNL1        0.0618
     18 H          30.6400    2.0550  124.8440 H       1  UNL1        0.0336
     19 H          26.1730    3.2290  120.4410 H       1  UNL1        0.0721
     20 H          27.6320    0.8990  121.6730 H       1  UNL1        0.1496
     21 H          25.8370    2.5260  123.3870 H       1  UNL1        0.0629
     22 H          27.3810    3.8020  121.5960 H       1  UNL1        0.0721
     23 H          23.1080    3.1680  123.0460 H       1  UNL1        0.0465
     24 H          23.2200   -0.4300  121.1430 H       1  UNL1        0.0597
     25 H          22.8290   -0.5940  123.5250 H       1  UNL1        0.0288
     26 H          21.8820    1.2980  124.7460 H       1  UNL1        0.0281
     27 H          24.0030    2.0140  124.0690 H       1  UNL1        0.0465
     28 H          21.1760   -0.5000  122.9040 H       1  UNL1        0.0288
     29 H          21.1160    1.9340  123.2840 H       1  UNL1        0.0281
     30 H          21.0210    6.0030  119.2810 H       1  UNL1        0.0252
     31 H          22.0210    3.5260  120.2960 H       1  UNL1        0.1495
     32 H          24.0120    5.6600  119.8420 H       1  UNL1        0.0592
     33 H          22.3210    6.0680  118.0850 H       1  UNL1        0.0252
     34 H          22.2070    7.3140  119.3440 H       1  UNL1        0.0252
     35 H          30.2420    8.7660  114.8770 H       1  UNL1        0.0272
     36 H          28.5810    8.7070  114.2620 H       1  UNL1        0.0272
     37 H          29.8860    7.8960  113.3730 H       1  UNL1        0.0272
     38 H          24.3930    1.3230  117.0960 H       1  UNL1        0.0252
     39 H          23.9160    1.2380  119.4480 H       1  UNL1        0.0594
     40 H          22.7410    1.7940  116.7060 H       1  UNL1        0.0252
     41 H          23.0680    0.1760  117.3560 H       1  UNL1        0.0252
     42 H          25.1250    6.1720  124.6320 H       1  UNL1        0.0314
     43 H          24.7140    7.4010  121.0380 H       1  UNL1        0.0616
     44 H          24.7310    8.7290  123.0000 H       1  UNL1        0.0292
     45 H          22.8390    5.6180  124.2230 H       1  UNL1        0.0467
     46 H          23.7110    8.8200  125.2840 H       1  UNL1        0.0233
     47 H          23.8110    7.4080  126.3490 H       1  UNL1        0.0233
     48 H          26.2500    7.8640  123.2970 H       1  UNL1        0.0292
     49 H          22.4040    7.2860  123.7840 H       1  UNL1        0.0467
     50 H          25.2820    8.2970  125.9130 H       1  UNL1        0.0233
     51 C          29.9470    2.2640  120.7760 C.2     1  UNL1        0.2375
     52 C          30.3950    3.4760  120.0530 C.2     1  UNL1        0.0001
     53 C          29.8300    3.7870  118.8760 C.2     1  UNL1       -0.0569
     54 C          30.1530    4.9920  118.1440 C.2     1  UNL1       -0.0616
     55 C          29.5490    5.3210  116.9920 C.2     1  UNL1       -0.0621
     56 C          29.8410    6.5410  116.2740 C.2     1  UNL1       -0.0659
     57 C          29.2330    6.8710  115.1250 C.2     1  UNL1       -0.0871
     58 C          29.5060    8.1320  114.3720 C.3     1  UNL1       -0.0465
     59 O          29.2510    1.3950  120.2640 O.2     1  UNL1       -0.2708
     60 N          30.3020    2.2660  122.1000 N.am    1  UNL1       -0.3002
     61 C          29.7580    1.2680  123.0260 C.3     1  UNL1        0.1036
     62 C          28.3600    1.8000  123.3970 C.2     1  UNL1        0.2344
     63 O          28.1610    2.5930  124.3160 O.2     1  UNL1       -0.2738
     64 C          30.6230    1.1110  124.2850 C.3     1  UNL1       -0.0006
     65 C          32.0450    0.6790  124.0010 C.ar    1  UNL1       -0.0451
     66 C          32.3170   -0.5260  123.3370 C.ar    1  UNL1       -0.0585
     67 C          33.1190    1.4810  124.4120 C.ar    1  UNL1       -0.0585
     68 C          33.6330   -0.9080  123.0730 C.ar    1  UNL1       -0.0615
     69 C          34.4350    1.0960  124.1490 C.ar    1  UNL1       -0.0615
     70 C          34.6920   -0.0970  123.4770 C.ar    1  UNL1       -0.0617
     71 N          27.3840    1.4770  122.4800 N.am    1  UNL1       -0.2997
     72 C          26.1290    2.2240  122.3800 C.3     1  UNL1        0.1340
     73 C          25.0860    1.2810  121.7370 C.2     1  UNL1        0.2399
     74 O          25.4560    0.4220  120.9280 O.2     1  UNL1       -0.2734
     75 C          26.3450    3.4610  121.4970 C.3     1  UNL1        0.1193
     76 O          25.4370    4.5090  121.8760 O.3     1  UNL1       -0.4610
     77 N          23.7430    1.4270  122.0610 N.am    1  UNL1       -0.2883
     78 C          22.7410    0.4370  121.6120 C.3     1  UNL1        0.1025
     79 C          21.5890    0.8990  120.6470 C.2     1  UNL1        0.2365
     80 O          20.4160    0.6340  120.9460 O.2     1  UNL1       -0.2735
     81 C          22.1260    0.0370  122.9660 C.3     1  UNL1       -0.0243
     82 C          21.9890    1.3900  123.6620 C.3     1  UNL1       -0.0350
     83 C          23.2710    2.1110  123.2630 C.3     1  UNL1        0.0156
     84 N          21.8450    1.4820  119.4110 N.am    1  UNL1       -0.2917
     85 C          20.6960    1.8210  118.5680 C.3     1  UNL1        0.0040
     86 C          23.1820    1.7560  118.8470 C.3     1  UNL1        0.0991
     87 C          23.3510    1.2320  117.4210 C.3     1  UNL1       -0.0379
     88 C          23.5380    3.2620  118.9190 C.2     1  UNL1        0.2339
     89 O          24.4840    3.7550  118.3100 O.2     1  UNL1       -0.2738
     90 N          22.7800    3.9910  119.8030 N.am    1  UNL1       -0.3027
     91 C          22.9710    5.4120  120.0480 C.3     1  UNL1        0.0968
     92 C          22.5910    5.6570  121.5210 C.2     1  UNL1        0.2363
     93 O          21.5140    5.2400  121.9620 O.2     1  UNL1       -0.2736
     94 C          22.0800    6.2460  119.1380 C.3     1  UNL1       -0.0381
     95 C          25.9150    5.7800  121.7490 C.2     1  UNL1        0.3279
     96 N          23.4990    6.2880  122.3400 N.am    1  UNL1       -0.2862
     97 O          27.0680    6.0760  121.4560 O.2     1  UNL1       -0.2487
     98 C          24.8130    6.8310  121.9680 C.3     1  UNL1        0.1233
     99 C          25.1740    7.7360  123.1490 C.3     1  UNL1       -0.0199
    100 C          23.1980    6.5330  123.7410 C.3     1  UNL1        0.0182
    101 C          24.3160    7.9430  125.5380 C.3     1  UNL1       -0.0609
    102 C          24.5100    7.0330  124.3380 C.3     1  UNL1       -0.0258
@<TRIPOS>BOND
     1    37    58    1
     2    36    58    1
     3    58    35    1
     4    58    57    1
     5     6    57    1
     6    57    56    2
     7    56     5    1
     8    56    55    1
     9     4    55    1
    10    40    87    1
    11    55    54    2
    12    38    87    1
    13    41    87    1
    14    87    86    1
    15     8    85    1
    16     9    85    1
    17    33    94    1
    18    54     3    1
    19    54    53    1
    20    89    88    2
    21     2    53    1
    22    85     7    1
    23    85    84    1
    24    86    88    1
    25    86    84    1
    26    86    39    1
    27    53    52    2
    28    88    90   am
    29    94    30    1
    30    94    34    1
    31    94    91    1
    32    84    79   am
    33    90    91    1
    34    90    31    1
    35    32    91    1
    36    91    92    1
    37    52     1    1
    38    52    51    1
    39    59    51    2
    40    19    75    1
    41    79    80    2
    42    79    78    1
    43    51    60   am
    44    74    73    2
    45    43    98    1
    46    24    78    1
    47    97    95    2
    48    75    22    1
    49    75    76    1
    50    75    72    1
    51    92    93    2
    52    92    96   am
    53    78    77    1
    54    78    81    1
    55    20    71    1
    56    73    77   am
    57    73    72    1
    58    95    76    1
    59    95    98    1
    60    98    96    1
    61    98    99    1
    62    77    83    1
    63    60    11    1
    64    60    61    1
    65    96   100    1
    66    72    71    1
    67    72    21    1
    68    71    62   am
    69    12    61    1
    70    16    68    1
    71    28    81    1
    72    81    25    1
    73    81    82    1
    74    44    99    1
    75    14    66    1
    76    61    62    1
    77    61    64    1
    78    23    83    1
    79    68    66   ar
    80    68    70   ar
    81    99    48    1
    82    99   102    1
    83    83    82    1
    84    83    27    1
    85    10    70    1
    86    29    82    1
    87    66    65   ar
    88    62    63    2
    89    70    69   ar
    90    82    26    1
    91   100    49    1
    92   100    45    1
    93   100   102    1
    94    65    64    1
    95    65    67   ar
    96    69    67   ar
    97    69    17    1
    98    64    18    1
    99    64    13    1
   100   102    42    1
   101   102   101    1
   102    67    15    1
   103    46   101    1
   104   101    50    1
   105   101    47    1
