@<TRIPOS>MOLECULE
115.62013
 102 105 0 0 0
SMALL
GASTEIGER

@<TRIPOS>ATOM
      1 H          21.7900   -2.9370  133.7110 H       1  UNL1        0.0669
      2 H          23.4990   -3.6430  136.1740 H       1  UNL1        0.0619
      3 H          20.4520   -3.8830  135.5390 H       1  UNL1        0.0618
      4 H          22.1270   -4.5460  138.0300 H       1  UNL1        0.0617
      5 H          19.0920   -4.7740  137.3510 H       1  UNL1        0.0614
      6 H          20.7350   -5.4190  139.8670 H       1  UNL1        0.0569
      7 H          27.1490    6.8850  129.0110 H       1  UNL1        0.0429
      8 H          28.5790    7.1130  127.9850 H       1  UNL1        0.0429
      9 H          28.7330    6.3600  129.5960 H       1  UNL1        0.0429
     10 H          30.1800   -0.5400  128.6560 H       1  UNL1        0.0618
     11 H          22.9250   -1.9560  132.0920 H       1  UNL1        0.1498
     12 H          25.5590   -0.8750  132.4880 H       1  UNL1        0.0598
     13 H          25.1760   -3.0860  130.3620 H       1  UNL1        0.0336
     14 H          26.2770   -2.3080  128.3980 H       1  UNL1        0.0620
     15 H          28.0830   -1.5810  132.2510 H       1  UNL1        0.0620
     16 H          28.2800   -1.3770  127.2960 H       1  UNL1        0.0618
     17 H          30.0750   -0.6540  131.1300 H       1  UNL1        0.0618
     18 H          26.1120   -3.3060  131.8190 H       1  UNL1        0.0336
     19 H          22.8880    2.2580  130.7440 H       1  UNL1        0.0721
     20 H          26.0030    0.6710  130.7200 H       1  UNL1        0.1496
     21 H          23.8110    1.1150  128.7800 H       1  UNL1        0.0629
     22 H          23.5150    3.5110  129.6730 H       1  UNL1        0.0721
     23 H          23.2630    3.0050  127.3900 H       1  UNL1        0.0465
     24 H          27.2870    2.9190  126.6490 H       1  UNL1        0.0597
     25 H          26.0380    2.9290  124.7080 H       1  UNL1        0.0288
     26 H          23.7030    3.5050  124.7320 H       1  UNL1        0.0281
     27 H          24.0040    1.7550  126.3650 H       1  UNL1        0.0465
     28 H          26.1270    4.6910  124.8710 H       1  UNL1        0.0288
     29 H          23.9560    4.7690  125.9420 H       1  UNL1        0.0281
     30 H          29.7460    4.9340  132.4450 H       1  UNL1        0.0252
     31 H          27.7910    3.4600  129.9840 H       1  UNL1        0.1495
     32 H          29.5090    2.0790  131.4680 H       1  UNL1        0.0592
     33 H          30.9750    3.7010  132.2500 H       1  UNL1        0.0252
     34 H          29.8420    3.5800  133.5970 H       1  UNL1        0.0252
     35 H          17.7200   -5.6330  139.1430 H       1  UNL1        0.0272
     36 H          18.3520   -5.1450  140.7260 H       1  UNL1        0.0272
     37 H          18.6110   -6.7990  140.1380 H       1  UNL1        0.0272
     38 H          31.0240    4.1450  126.9800 H       1  UNL1        0.0252
     39 H          28.8530    3.2880  127.6150 H       1  UNL1        0.0594
     40 H          30.6090    5.7730  127.5170 H       1  UNL1        0.0252
     41 H          29.7800    5.0680  126.1190 H       1  UNL1        0.0252
     42 H          25.0570    5.7810  132.5060 H       1  UNL1        0.0314
     43 H          25.7780    2.4430  134.2190 H       1  UNL1        0.0616
     44 H          25.6980    4.5880  135.2510 H       1  UNL1        0.0292
     45 H          27.3500    5.4470  131.8970 H       1  UNL1        0.0467
     46 H          26.5460    6.9250  134.9360 H       1  UNL1        0.0233
     47 H          26.2970    7.7490  133.3880 H       1  UNL1        0.0233
     48 H          24.1170    4.6510  134.4490 H       1  UNL1        0.0292
     49 H          27.8610    5.2890  133.6010 H       1  UNL1        0.0467
     50 H          24.9090    7.3600  134.4200 H       1  UNL1        0.0233
     51 C          23.9720   -2.6040  133.7690 C.2     1  UNL1        0.2375
     52 C          22.6720   -3.0470  134.3300 C.2     1  UNL1        0.0001
     53 C          22.5970   -3.5510  135.5710 C.2     1  UNL1       -0.0569
     54 C          21.3440   -3.9740  136.1570 C.2     1  UNL1       -0.0616
     55 C          21.2410   -4.4550  137.4050 C.2     1  UNL1       -0.0621
     56 C          19.9770   -4.8620  137.9780 C.2     1  UNL1       -0.0659
     57 C          19.8590   -5.3290  139.2290 C.2     1  UNL1       -0.0871
     58 C          18.5590   -5.7490  139.8370 C.3     1  UNL1       -0.0465
     59 O          25.0350   -2.7210  134.3600 O.2     1  UNL1       -0.2708
     60 N          23.8380   -2.0490  132.5270 N.am    1  UNL1       -0.3002
     61 C          24.9580   -1.4640  131.7860 C.3     1  UNL1        0.1036
     62 C          24.3020   -0.5280  130.7550 C.2     1  UNL1        0.2344
     63 O          23.1630   -0.7260  130.3240 O.2     1  UNL1       -0.2738
     64 C          25.7960   -2.5470  131.0910 C.3     1  UNL1       -0.0006
     65 C          27.0330   -2.0140  130.4060 C.ar    1  UNL1       -0.0451
     66 C          27.1040   -1.9520  129.0080 C.ar    1  UNL1       -0.0585
     67 C          28.1160   -1.5490  131.1630 C.ar    1  UNL1       -0.0585
     68 C          28.2340   -1.4240  128.3800 C.ar    1  UNL1       -0.0615
     69 C          29.2440   -1.0210  130.5330 C.ar    1  UNL1       -0.0615
     70 C          29.3020   -0.9560  129.1430 C.ar    1  UNL1       -0.0617
     71 N          25.0600    0.5350  130.3440 N.am    1  UNL1       -0.2997
     72 C          24.5170    1.5770  129.4770 C.3     1  UNL1        0.1340
     73 C          25.6600    2.2250  128.6850 C.2     1  UNL1        0.2399
     74 O          26.8050    2.2760  129.1430 O.2     1  UNL1       -0.2734
     75 C          23.8050    2.6610  130.3000 C.3     1  UNL1        0.1193
     76 O          24.7100    3.1730  131.3000 O.3     1  UNL1       -0.4610
     77 N          25.3680    2.8320  127.4870 N.am    1  UNL1       -0.2883
     78 C          26.4090    3.5520  126.7460 C.3     1  UNL1        0.1025
     79 C          26.6940    4.9030  127.4570 C.2     1  UNL1        0.2365
     80 O          25.7890    5.7460  127.5220 O.2     1  UNL1       -0.2735
     81 C          25.7880    3.7740  125.3610 C.3     1  UNL1       -0.0243
     82 C          24.2840    3.7750  125.6180 C.3     1  UNL1       -0.0350
     83 C          24.1170    2.7750  126.7490 C.3     1  UNL1        0.0156
     84 N          27.9210    5.1370  128.0760 N.am    1  UNL1       -0.2917
     85 C          28.1030    6.4430  128.7070 C.3     1  UNL1        0.0040
     86 C          29.1220    4.2600  128.0270 C.3     1  UNL1        0.0991
     87 C          30.1930    4.8460  127.1090 C.3     1  UNL1       -0.0379
     88 C          29.6940    3.9230  129.4320 C.2     1  UNL1        0.2339
     89 O          30.8950    3.7880  129.6500 O.2     1  UNL1       -0.2738
     90 N          28.7260    3.6220  130.3630 N.am    1  UNL1       -0.3027
     91 C          29.0000    3.0320  131.6660 C.3     1  UNL1        0.0968
     92 C          27.6570    2.6550  132.3440 C.2     1  UNL1        0.2363
     93 O          27.2630    1.4820  132.3350 O.2     1  UNL1       -0.2736
     94 C          29.9310    3.8600  132.5430 C.3     1  UNL1       -0.0381
     95 C          24.4500    2.8490  132.5960 C.2     1  UNL1        0.3279
     96 N          26.8460    3.6410  132.8650 N.am    1  UNL1       -0.2862
     97 O          23.4040    2.3500  132.9950 O.2     1  UNL1       -0.2487
     98 C          25.5900    3.2780  133.5350 C.3     1  UNL1        0.1233
     99 C          25.1940    4.5550  134.2770 C.3     1  UNL1       -0.0199
    100 C          27.0610    5.0790  132.8850 C.3     1  UNL1        0.0182
    101 C          25.8810    6.9990  134.0690 C.3     1  UNL1       -0.0609
    102 C          25.7320    5.6630  133.3640 C.3     1  UNL1       -0.0258
@<TRIPOS>BOND
     1    25    81    1
     2    26    82    1
     3    28    81    1
     4    81    82    1
     5    81    78    1
     6    82    29    1
     7    82    83    1
     8    41    87    1
     9    27    83    1
    10    24    78    1
    11    78    79    1
    12    78    77    1
    13    83    23    1
    14    83    77    1
    15    38    87    1
    16    87    40    1
    17    87    86    1
    18    16    68    1
    19    79    80    2
    20    79    84   am
    21    77    73   am
    22    39    86    1
    23     8    85    1
    24    86    84    1
    25    86    88    1
    26    84    85    1
    27    68    66   ar
    28    68    70   ar
    29    14    66    1
    30    10    70    1
    31    73    74    2
    32    73    72    1
    33    85     7    1
    34    85     9    1
    35    21    72    1
    36    66    65   ar
    37    70    69   ar
    38    88    89    2
    39    88    90   am
    40    72    75    1
    41    72    71    1
    42    22    75    1
    43    31    90    1
    44    75    19    1
    45    75    76    1
    46    63    62    2
    47    71    20    1
    48    71    62   am
    49    13    64    1
    50    90    91    1
    51    65    64    1
    52    65    67   ar
    53    69    17    1
    54    69    67   ar
    55    62    61    1
    56    64    61    1
    57    64    18    1
    58    67    15    1
    59    76    95    1
    60    32    91    1
    61    91    92    1
    62    91    94    1
    63    61    12    1
    64    61    60    1
    65    45   100    1
    66    11    60    1
    67    33    94    1
    68    93    92    2
    69    92    96   am
    70    30    94    1
    71    42   102    1
    72    60    51   am
    73    94    34    1
    74    95    97    2
    75    95    98    1
    76    96   100    1
    77    96    98    1
    78   100   102    1
    79   100    49    1
    80   102   101    1
    81   102    99    1
    82    47   101    1
    83    98    43    1
    84    98    99    1
    85     1    52    1
    86    51    52    1
    87    51    59    2
    88   101    50    1
    89   101    46    1
    90    99    48    1
    91    99    44    1
    92    52    53    2
    93     3    54    1
    94    53    54    1
    95    53     2    1
    96    54    55    2
    97     5    56    1
    98    55    56    1
    99    55     4    1
   100    56    57    2
   101    35    58    1
   102    57    58    1
   103    57     6    1
   104    58    37    1
   105    58    36    1
