@<TRIPOS>MOLECULE
126.42099
 102 105 0 0 0
SMALL
GASTEIGER

@<TRIPOS>ATOM
      1 H          29.1650    0.3300  121.4090 H       1  UNL1        0.0669
      2 H          31.9160    1.5690  120.7860 H       1  UNL1        0.0619
      3 H          30.8170   -0.0900  123.1890 H       1  UNL1        0.0618
      4 H          33.5960    1.0380  122.5060 H       1  UNL1        0.0617
      5 H          32.4660   -0.5480  124.9390 H       1  UNL1        0.0614
      6 H          35.2610    0.5260  124.2390 H       1  UNL1        0.0569
      7 H          29.2270    5.6220  126.4420 H       1  UNL1        0.0429
      8 H          28.4510    6.5340  125.1420 H       1  UNL1        0.0429
      9 H          29.0740    4.8920  124.8200 H       1  UNL1        0.0429
     10 H          30.8620   -2.6560  115.0200 H       1  UNL1        0.0618
     11 H          27.7610    0.5000  119.6960 H       1  UNL1        0.1498
     12 H          28.3720    2.4850  117.5210 H       1  UNL1        0.0598
     13 H          26.6990    1.2680  116.1220 H       1  UNL1        0.0336
     14 H          29.6220    1.3560  115.8730 H       1  UNL1        0.0620
     15 H          27.0450   -1.9710  116.8500 H       1  UNL1        0.0620
     16 H          31.2910   -0.2130  114.9850 H       1  UNL1        0.0618
     17 H          28.7340   -3.5250  115.9530 H       1  UNL1        0.0618
     18 H          26.3500    0.1780  117.4490 H       1  UNL1        0.0336
     19 H          23.7780    2.7660  119.6240 H       1  UNL1        0.0721
     20 H          27.3270    2.7230  120.3460 H       1  UNL1        0.1496
     21 H          25.2840    4.6760  119.9260 H       1  UNL1        0.0629
     22 H          23.4240    3.4610  121.1830 H       1  UNL1        0.0721
     23 H          23.5800    5.4380  122.0430 H       1  UNL1        0.0465
     24 H          27.4060    5.8550  123.3800 H       1  UNL1        0.0597
     25 H          26.2360    7.8850  123.3440 H       1  UNL1        0.0288
     26 H          23.8150    7.8970  123.2000 H       1  UNL1        0.0281
     27 H          24.7000    6.6240  121.3330 H       1  UNL1        0.0465
     28 H          25.7630    7.4390  124.9950 H       1  UNL1        0.0288
     29 H          23.6960    6.4440  124.2100 H       1  UNL1        0.0281
     30 H          26.0600   -0.2200  127.3080 H       1  UNL1        0.0252
     31 H          26.1150    2.4780  125.5650 H       1  UNL1        0.1495
     32 H          28.2810    0.6260  125.4290 H       1  UNL1        0.0592
     33 H          27.7950   -0.3580  127.4830 H       1  UNL1        0.0252
     34 H          26.9580   -1.4210  126.3470 H       1  UNL1        0.0252
     35 H          34.0940   -1.0310  126.6620 H       1  UNL1        0.0272
     36 H          35.3220    0.2430  126.7680 H       1  UNL1        0.0272
     37 H          35.7040   -1.2940  125.9670 H       1  UNL1        0.0272
     38 H          26.0700    3.9110  128.9570 H       1  UNL1        0.0252
     39 H          28.0110    4.5940  127.8140 H       1  UNL1        0.0594
     40 H          25.1140    3.7210  127.5020 H       1  UNL1        0.0252
     41 H          25.6230    5.3430  128.0130 H       1  UNL1        0.0252
     42 H          22.3450    0.6820  124.6710 H       1  UNL1        0.0314
     43 H          25.0940   -0.4620  122.2060 H       1  UNL1        0.0616
     44 H          23.3720   -1.7870  123.1940 H       1  UNL1        0.0292
     45 H          24.2550    0.7000  126.0430 H       1  UNL1        0.0467
     46 H          22.4170   -2.2880  125.4280 H       1  UNL1        0.0233
     47 H          21.7510   -0.9780  126.4160 H       1  UNL1        0.0233
     48 H          22.3770   -0.4660  122.5470 H       1  UNL1        0.0292
     49 H          24.5240   -1.0560  125.8550 H       1  UNL1        0.0467
     50 H          20.9980   -1.3930  124.8650 H       1  UNL1        0.0233
     51 C          29.5540    1.5290  119.5910 C.2     1  UNL1        0.2375
     52 C          29.9290    0.8770  120.8680 C.2     1  UNL1        0.0001
     53 C          31.1740    1.0050  121.3490 C.2     1  UNL1       -0.0569
     54 C          31.5810    0.4280  122.6110 C.2     1  UNL1       -0.0616
     55 C          32.8330    0.5200  123.0830 C.2     1  UNL1       -0.0621
     56 C          33.2330   -0.0470  124.3510 C.2     1  UNL1       -0.0659
     57 C          34.4880    0.0260  124.8190 C.2     1  UNL1       -0.0871
     58 C          34.9190   -0.5490  126.1280 C.3     1  UNL1       -0.0465
     59 O          30.2740    2.3330  119.0140 O.2     1  UNL1       -0.2708
     60 N          28.3030    1.1670  119.1600 N.am    1  UNL1       -0.3002
     61 C          27.6630    1.7980  117.9960 C.3     1  UNL1        0.1036
     62 C          26.4750    2.6680  118.4680 C.2     1  UNL1        0.2344
     63 O          25.5910    3.0740  117.7180 O.2     1  UNL1       -0.2738
     64 C          27.1570    0.7600  116.9810 C.3     1  UNL1       -0.0006
     65 C          28.2090   -0.1870  116.4480 C.ar    1  UNL1       -0.0451
     66 C          29.4090    0.2900  115.9030 C.ar    1  UNL1       -0.0585
     67 C          27.9740   -1.5700  116.4510 C.ar    1  UNL1       -0.0585
     68 C          30.3610   -0.5970  115.3950 C.ar    1  UNL1       -0.0615
     69 C          28.9260   -2.4550  115.9410 C.ar    1  UNL1       -0.0615
     70 C          30.1200   -1.9680  115.4160 C.ar    1  UNL1       -0.0617
     71 N          26.5280    3.0230  119.7890 N.am    1  UNL1       -0.2997
     72 C          25.4860    3.7640  120.4980 C.3     1  UNL1        0.1340
     73 C          26.1200    4.1530  121.8500 C.2     1  UNL1        0.2399
     74 O          27.1130    3.5450  122.2700 O.2     1  UNL1       -0.2734
     75 C          24.2010    2.9360  120.6210 C.3     1  UNL1        0.1193
     76 O          24.4550    1.6230  121.1620 O.3     1  UNL1       -0.4610
     77 N          25.6170    5.2230  122.5480 N.am    1  UNL1       -0.2883
     78 C          26.3630    5.7530  123.6920 C.3     1  UNL1        0.1025
     79 C          26.2640    4.8650  124.9600 C.2     1  UNL1        0.2365
     80 O          25.2800    4.1480  125.1610 O.2     1  UNL1       -0.2735
     81 C          25.7290    7.1230  123.9480 C.3     1  UNL1       -0.0243
     82 C          24.2990    6.9480  123.4450 C.3     1  UNL1       -0.0350
     83 C          24.4650    6.0460  122.2320 C.3     1  UNL1        0.0156
     84 N          27.2930    4.9530  125.9000 N.am    1  UNL1       -0.2917
     85 C          28.5870    5.5330  125.5610 C.3     1  UNL1        0.0040
     86 C          27.2410    4.1680  127.1570 C.3     1  UNL1        0.0991
     87 C          25.9350    4.2960  127.9400 C.3     1  UNL1       -0.0379
     88 C          27.6370    2.6920  126.9420 C.2     1  UNL1        0.2339
     89 O          28.5600    2.1820  127.5760 O.2     1  UNL1       -0.2738
     90 N          26.8630    1.9820  126.0560 N.am    1  UNL1       -0.3027
     91 C          27.2030    0.6260  125.6460 C.3     1  UNL1        0.0968
     92 C          26.5200    0.3020  124.2970 C.2     1  UNL1        0.2363
     93 O          27.1800    0.3210  123.2500 O.2     1  UNL1       -0.2736
     94 C          26.9830   -0.4030  126.7480 C.3     1  UNL1       -0.0381
     95 C          24.1740    1.4770  122.4850 C.2     1  UNL1        0.3279
     96 N          25.1600    0.0880  124.2460 N.am    1  UNL1       -0.2862
     97 O          23.6870    2.3550  123.1870 O.2     1  UNL1       -0.2487
     98 C          24.4780    0.0480  122.9550 C.3     1  UNL1        0.1233
     99 C          23.1860   -0.7070  123.2440 C.3     1  UNL1       -0.0199
    100 C          24.2270   -0.1370  125.3410 C.3     1  UNL1        0.0182
    101 C          21.9550   -1.2960  125.3880 C.3     1  UNL1       -0.0609
    102 C          22.8510   -0.2910  124.6830 C.3     1  UNL1       -0.0258
@<TRIPOS>BOND
     1    16    68    1
     2    10    70    1
     3    68    70   ar
     4    68    66   ar
     5    70    69   ar
     6    14    66    1
     7    66    65   ar
     8    69    17    1
     9    69    67   ar
    10    13    64    1
    11    65    67   ar
    12    65    64    1
    13    67    15    1
    14    64    18    1
    15    64    61    1
    16    12    61    1
    17    63    62    2
    18    61    62    1
    19    61    60    1
    20    62    71   am
    21    59    51    2
    22    60    51   am
    23    60    11    1
    24    51    52    1
    25    19    75    1
    26    71    20    1
    27    71    72    1
    28    21    72    1
    29    72    75    1
    30    72    73    1
    31    75    76    1
    32    75    22    1
    33     2    53    1
    34    52    53    2
    35    52     1    1
    36    76    95    1
    37    27    83    1
    38    53    54    1
    39    73    74    2
    40    73    77   am
    41    23    83    1
    42    43    98    1
    43    83    77    1
    44    83    82    1
    45    95    98    1
    46    95    97    2
    47     4    55    1
    48    48    99    1
    49    77    78    1
    50    54    55    2
    51    54     3    1
    52    98    99    1
    53    98    96    1
    54    55    56    1
    55    44    99    1
    56    26    82    1
    57    99   102    1
    58    93    92    2
    59    25    81    1
    60    24    78    1
    61    82    81    1
    62    82    29    1
    63    78    81    1
    64    78    79    1
    65    81    28    1
    66     6    57    1
    67    96    92   am
    68    96   100    1
    69    92    91    1
    70    56    57    2
    71    56     5    1
    72    42   102    1
    73   102   100    1
    74   102   101    1
    75    57    58    1
    76     9    85    1
    77    50   101    1
    78    79    80    2
    79    79    84   am
    80     8    85    1
    81   100    49    1
    82   100    45    1
    83   101    46    1
    84   101    47    1
    85    32    91    1
    86    85    84    1
    87    85     7    1
    88    31    90    1
    89    91    90    1
    90    91    94    1
    91    84    86    1
    92    37    58    1
    93    90    88   am
    94    58    35    1
    95    58    36    1
    96    34    94    1
    97    94    30    1
    98    94    33    1
    99    88    86    1
   100    88    89    2
   101    86    39    1
   102    86    87    1
   103    40    87    1
   104    87    41    1
   105    87    38    1
