@<TRIPOS>MOLECULE
120.57089
 102 105 0 0 0
SMALL
GASTEIGER

@<TRIPOS>ATOM
      1 H          29.7070    2.7100  118.1230 H       1  UNL1        0.0669
      2 H          27.9360    5.1650  118.6940 H       1  UNL1        0.0619
      3 H          30.6570    4.8070  117.2090 H       1  UNL1        0.0618
      4 H          28.8650    7.2430  117.7610 H       1  UNL1        0.0617
      5 H          31.5820    6.8730  116.2780 H       1  UNL1        0.0614
      6 H          29.7900    9.3120  116.8150 H       1  UNL1        0.0569
      7 H          25.3820   -2.5580  122.3300 H       1  UNL1        0.0429
      8 H          25.0990   -4.0610  123.2250 H       1  UNL1        0.0429
      9 H          26.1820   -4.0450  121.8020 H       1  UNL1        0.0429
     10 H          23.3530    1.3670  115.0270 H       1  UNL1        0.0618
     11 H          28.9080    0.8470  118.9750 H       1  UNL1        0.1498
     12 H          26.3580    0.8540  120.5420 H       1  UNL1        0.0598
     13 H          25.7910   -1.3730  119.5410 H       1  UNL1        0.0336
     14 H          24.6890    1.5050  119.0940 H       1  UNL1        0.0620
     15 H          26.2050   -1.5230  116.4100 H       1  UNL1        0.0620
     16 H          23.3080    2.4050  117.2810 H       1  UNL1        0.0618
     17 H          24.8030   -0.6020  114.6030 H       1  UNL1        0.0618
     18 H          27.2130   -1.2880  118.5140 H       1  UNL1        0.0336
     19 H          31.8400    0.1090  123.0890 H       1  UNL1        0.0721
     20 H          28.5840    1.3170  121.7470 H       1  UNL1        0.1496
     21 H          29.6190   -1.2910  122.7990 H       1  UNL1        0.0629
     22 H          31.2150    1.1150  121.7850 H       1  UNL1        0.0721
     23 H          27.8530    1.3910  126.0670 H       1  UNL1        0.0465
     24 H          29.2040   -2.2190  124.7120 H       1  UNL1        0.0597
     25 H          28.8240   -2.1930  127.0380 H       1  UNL1        0.0288
     26 H          27.4360   -0.4720  128.0390 H       1  UNL1        0.0281
     27 H          29.2440    0.6050  126.8500 H       1  UNL1        0.0465
     28 H          27.1880   -2.7030  126.5740 H       1  UNL1        0.0288
     29 H          26.3830   -0.4180  126.6140 H       1  UNL1        0.0281
     30 H          30.0700   -6.2110  120.3570 H       1  UNL1        0.0252
     31 H          28.2580   -3.5810  121.4500 H       1  UNL1        0.1495
     32 H          30.9670   -3.4260  121.2760 H       1  UNL1        0.0592
     33 H          31.2570   -5.8590  121.6170 H       1  UNL1        0.0252
     34 H          31.6220   -5.4770  119.9310 H       1  UNL1        0.0252
     35 H          32.4970    8.9090  115.3440 H       1  UNL1        0.0272
     36 H          32.0810   10.3170  116.3370 H       1  UNL1        0.0272
     37 H          31.2110   10.0120  114.8210 H       1  UNL1        0.0272
     38 H          27.9330   -6.5070  124.1840 H       1  UNL1        0.0252
     39 H          28.1770   -4.2120  124.9690 H       1  UNL1        0.0594
     40 H          26.9840   -5.9980  122.7910 H       1  UNL1        0.0252
     41 H          26.3310   -5.7940  124.4300 H       1  UNL1        0.0252
     42 H          30.8870   -0.4030  117.0700 H       1  UNL1        0.0314
     43 H          32.3640   -2.6440  119.8570 H       1  UNL1        0.0616
     44 H          33.1020   -2.4310  117.6250 H       1  UNL1        0.0292
     45 H          29.2530   -2.0810  117.2410 H       1  UNL1        0.0467
     46 H          32.2040   -2.5390  115.3100 H       1  UNL1        0.0233
     47 H          30.9250   -1.4200  114.8120 H       1  UNL1        0.0233
     48 H          33.0680   -0.7110  118.0610 H       1  UNL1        0.0292
     49 H          30.3730   -3.3840  116.7900 H       1  UNL1        0.0467
     50 H          32.5240   -0.7970  115.2530 H       1  UNL1        0.0233
     51 C          27.7990    2.5740  119.2290 C.2     1  UNL1        0.2375
     52 C          28.8740    3.2900  118.4980 C.2     1  UNL1        0.0001
     53 C          28.7930    4.6150  118.3070 C.2     1  UNL1       -0.0569
     54 C          29.8030    5.3630  117.5910 C.2     1  UNL1       -0.0616
     55 C          29.7190    6.6850  117.3820 C.2     1  UNL1       -0.0621
     56 C          30.7260    7.4280  116.6580 C.2     1  UNL1       -0.0659
     57 C          30.6420    8.7490  116.4410 C.2     1  UNL1       -0.0871
     58 C          31.6690    9.5350  115.6930 C.3     1  UNL1       -0.0465
     59 O          26.8430    3.1430  119.7370 O.2     1  UNL1       -0.2708
     60 N          28.0180    1.2260  119.2920 N.am    1  UNL1       -0.3002
     61 C          27.1040    0.2970  119.9650 C.3     1  UNL1        0.1036
     62 C          27.9710   -0.4860  120.9670 C.2     1  UNL1        0.2344
     63 O          27.9860   -1.7120  121.0450 O.2     1  UNL1       -0.2738
     64 C          26.4300   -0.6760  118.9820 C.3     1  UNL1       -0.0006
     65 C          25.5820   -0.0650  117.8870 C.ar    1  UNL1       -0.0451
     66 C          24.7380    1.0290  118.1170 C.ar    1  UNL1       -0.0585
     67 C          25.5830   -0.6530  116.6120 C.ar    1  UNL1       -0.0585
     68 C          23.9460    1.5460  117.0890 C.ar    1  UNL1       -0.0615
     69 C          24.7880   -0.1390  115.5860 C.ar    1  UNL1       -0.0615
     70 C          23.9720    0.9640  115.8240 C.ar    1  UNL1       -0.0617
     71 N          28.7230    0.3110  121.7970 N.am    1  UNL1       -0.2997
     72 C          29.7190   -0.2070  122.7270 C.3     1  UNL1        0.1340
     73 C          29.4580    0.4730  124.0760 C.2     1  UNL1        0.2399
     74 O          29.8010    1.6450  124.2540 O.2     1  UNL1       -0.2734
     75 C          31.1430    0.1210  122.2440 C.3     1  UNL1        0.1193
     76 O          31.6240   -0.8960  121.3340 O.3     1  UNL1       -0.4610
     77 N          28.7270   -0.2150  125.0210 N.am    1  UNL1       -0.2883
     78 C          28.3330   -1.6320  125.0050 C.3     1  UNL1        0.1025
     79 C          27.1310   -1.9260  124.0650 C.2     1  UNL1        0.2365
     80 O          26.3130   -1.0360  123.8090 O.2     1  UNL1       -0.2735
     81 C          27.9360   -1.9120  126.4590 C.3     1  UNL1       -0.0243
     82 C          27.4170   -0.5650  126.9500 C.3     1  UNL1       -0.0350
     83 C          28.3360    0.4290  126.2620 C.3     1  UNL1        0.0156
     84 N          26.9800   -3.2280  123.5700 N.am    1  UNL1       -0.2917
     85 C          25.8500   -3.4830  122.6790 C.3     1  UNL1        0.0040
     86 C          27.8820   -4.3520  123.9240 C.3     1  UNL1        0.0991
     87 C          27.2410   -5.7380  123.8240 C.3     1  UNL1       -0.0379
     88 C          29.1970   -4.3590  123.1100 C.2     1  UNL1        0.2339
     89 O          30.2550   -4.7160  123.6270 O.2     1  UNL1       -0.2738
     90 N          29.0870   -4.0840  121.7720 N.am    1  UNL1       -0.3027
     91 C          30.2190   -4.0950  120.8520 C.3     1  UNL1        0.0968
     92 C          29.7550   -3.6240  119.4520 C.2     1  UNL1        0.2363
     93 O          28.7230   -4.0770  118.9470 O.2     1  UNL1       -0.2736
     94 C          30.8250   -5.4880  120.6830 C.3     1  UNL1       -0.0381
     95 C          31.2870   -0.7610  120.0200 C.2     1  UNL1        0.3279
     96 N          30.5540   -2.7410  118.7520 N.am    1  UNL1       -0.2862
     97 O          30.6670    0.1830  119.5420 O.2     1  UNL1       -0.2487
     98 C          31.7260   -2.0100  119.2350 C.3     1  UNL1        0.1233
     99 C          32.4510   -1.6090  117.9490 C.3     1  UNL1       -0.0199
    100 C          30.2780   -2.4490  117.3540 C.3     1  UNL1        0.0182
    101 C          31.7690   -1.5510  115.4960 C.3     1  UNL1       -0.0609
    102 C          31.3140   -1.4050  116.9390 C.3     1  UNL1       -0.0258
@<TRIPOS>BOND
     1    17    69    1
     2    47   101    1
     3    37    58    1
     4    10    70    1
     5    50   101    1
     6    46   101    1
     7    35    58    1
     8   101   102    1
     9    69    70   ar
    10    69    67   ar
    11    58    36    1
    12    58    57    1
    13    70    68   ar
    14     5    56    1
    15    15    67    1
    16    57    56    2
    17    57     6    1
    18    67    65   ar
    19    56    55    1
    20    49   100    1
    21   102    42    1
    22   102   100    1
    23   102    99    1
    24    68    16    1
    25    68    66   ar
    26     3    54    1
    27    45   100    1
    28   100    96    1
    29    55    54    2
    30    55     4    1
    31    54    53    1
    32    44    99    1
    33    65    66   ar
    34    65    64    1
    35    99    48    1
    36    99    98    1
    37    66    14    1
    38     1    52    1
    39    53    52    2
    40    53     2    1
    41    52    51    1
    42    18    64    1
    43    96    98    1
    44    96    92   am
    45    93    92    2
    46    11    60    1
    47    64    13    1
    48    64    61    1
    49    51    60   am
    50    51    59    2
    51    98    43    1
    52    98    95    1
    53    60    61    1
    54    92    91    1
    55    97    95    2
    56    34    94    1
    57    61    12    1
    58    61    62    1
    59    95    76    1
    60    30    94    1
    61    94    91    1
    62    94    33    1
    63    91    32    1
    64    91    90    1
    65    62    63    2
    66    62    71   am
    67    76    75    1
    68    31    90    1
    69    20    71    1
    70    90    88   am
    71    22    75    1
    72    71    72    1
    73     9    85    1
    74    75    72    1
    75    75    19    1
    76     7    85    1
    77    85     8    1
    78    85    84    1
    79    72    21    1
    80    72    73    1
    81    40    87    1
    82    88    89    2
    83    88    86    1
    84    84    86    1
    85    84    79   am
    86    80    79    2
    87    87    86    1
    88    87    38    1
    89    87    41    1
    90    86    39    1
    91    79    78    1
    92    73    74    2
    93    73    77   am
    94    24    78    1
    95    78    77    1
    96    78    81    1
    97    77    83    1
    98    23    83    1
    99    83    27    1
   100    83    82    1
   101    81    28    1
   102    81    82    1
   103    81    25    1
   104    29    82    1
   105    82    26    1
