@<TRIPOS>MOLECULE
149.93352
 102 105 0 0 0
SMALL
GASTEIGER

@<TRIPOS>ATOM
      1 H          29.2370    3.4300  126.2420 H       1  UNL1        0.0669
      2 H          31.6090    2.7270  124.4070 H       1  UNL1        0.0619
      3 H          31.3500    4.4420  127.0000 H       1  UNL1        0.0618
      4 H          33.7270    3.7310  125.1830 H       1  UNL1        0.0617
      5 H          33.4310    5.4820  127.7450 H       1  UNL1        0.0614
      6 H          35.8210    4.7660  125.9490 H       1  UNL1        0.0569
      7 H          26.2040    7.7000  115.0870 H       1  UNL1        0.0429
      8 H          27.7180    7.0280  114.4610 H       1  UNL1        0.0429
      9 H          27.7180    8.0070  115.9580 H       1  UNL1        0.0429
     10 H          22.5410   -1.7980  120.8360 H       1  UNL1        0.0618
     11 H          27.2960    2.6690  125.4810 H       1  UNL1        0.1498
     12 H          27.2470    0.9420  123.0320 H       1  UNL1        0.0598
     13 H          25.0140    1.3740  125.1190 H       1  UNL1        0.0336
     14 H          23.1620    1.4860  123.5300 H       1  UNL1        0.0620
     15 H          26.1400   -1.6200  123.1670 H       1  UNL1        0.0620
     16 H          21.7630    0.3230  121.8610 H       1  UNL1        0.0618
     17 H          24.7290   -2.7630  121.4950 H       1  UNL1        0.0618
     18 H          26.0960    0.0030  125.1310 H       1  UNL1        0.0336
     19 H          27.5690    6.0210  120.4500 H       1  UNL1        0.0721
     20 H          27.3940    2.4560  121.4560 H       1  UNL1        0.1496
     21 H          25.5110    4.7820  121.5120 H       1  UNL1        0.0629
     22 H          28.5230    4.6880  121.1740 H       1  UNL1        0.0721
     23 H          24.1270    5.9120  120.0220 H       1  UNL1        0.0465
     24 H          25.8740    3.7890  117.0110 H       1  UNL1        0.0597
     25 H          23.5480    3.3740  117.1340 H       1  UNL1        0.0288
     26 H          22.0950    4.7240  118.4540 H       1  UNL1        0.0281
     27 H          23.6690    4.1920  120.1350 H       1  UNL1        0.0465
     28 H          23.5240    4.8440  116.1410 H       1  UNL1        0.0288
     29 H          22.9460    6.2080  118.0380 H       1  UNL1        0.0281
     30 H          28.5570    9.0220  119.4760 H       1  UNL1        0.0252
     31 H          28.0120    6.8390  118.2400 H       1  UNL1        0.1495
     32 H          30.9400    7.4880  118.3240 H       1  UNL1        0.0592
     33 H          29.2950    9.3340  117.9100 H       1  UNL1        0.0252
     34 H          30.2430    9.5940  119.3620 H       1  UNL1        0.0252
     35 H          35.4830    6.5280  128.4870 H       1  UNL1        0.0272
     36 H          36.5570    6.8970  127.1260 H       1  UNL1        0.0272
     37 H          36.8800    5.4880  128.1550 H       1  UNL1        0.0272
     38 H          29.2860    3.6900  115.2470 H       1  UNL1        0.0252
     39 H          27.8880    4.3990  117.0840 H       1  UNL1        0.0594
     40 H          28.9220    5.1380  114.3120 H       1  UNL1        0.0252
     41 H          27.6470    3.9460  114.6210 H       1  UNL1        0.0252
     42 H          29.4720    8.7180  123.8020 H       1  UNL1        0.0314
     43 H          30.5440    5.3570  122.3770 H       1  UNL1        0.0616
     44 H          31.9680    7.0140  123.3270 H       1  UNL1        0.0292
     45 H          29.3720    9.1770  121.5360 H       1  UNL1        0.0467
     46 H          32.4110    9.4750  123.3400 H       1  UNL1        0.0233
     47 H          31.0690   10.6090  123.5640 H       1  UNL1        0.0233
     48 H          30.7820    6.8430  124.6320 H       1  UNL1        0.0292
     49 H          31.1300    8.9450  121.2700 H       1  UNL1        0.0467
     50 H          31.5520    9.5340  124.8880 H       1  UNL1        0.0233
     51 C          29.0040    2.2180  124.4110 C.2     1  UNL1        0.2375
     52 C          29.7780    2.9850  125.4170 C.2     1  UNL1        0.0001
     53 C          31.0960    3.1730  125.2580 C.2     1  UNL1       -0.0569
     54 C          31.8790    3.9800  126.1680 C.2     1  UNL1       -0.0616
     55 C          33.1950    4.1890  126.0150 C.2     1  UNL1       -0.0621
     56 C          33.9630    5.0170  126.9170 C.2     1  UNL1       -0.0659
     57 C          35.2790    5.2290  126.7710 C.2     1  UNL1       -0.0871
     58 C          36.0890    6.0840  127.6900 C.3     1  UNL1       -0.0465
     59 O          29.5070    1.7520  123.3970 O.2     1  UNL1       -0.2708
     60 N          27.6710    2.1180  124.7170 N.am    1  UNL1       -0.3002
     61 C          26.7130    1.5630  123.7610 C.3     1  UNL1        0.1036
     62 C          26.1100    2.7890  123.0540 C.2     1  UNL1        0.2344
     63 O          25.2810    3.5240  123.5890 O.2     1  UNL1       -0.2738
     64 C          25.6300    0.7420  124.4660 C.3     1  UNL1       -0.0006
     65 C          24.7480    0.0120  123.4790 C.ar    1  UNL1       -0.0451
     66 C          23.5120    0.5500  123.0970 C.ar    1  UNL1       -0.0585
     67 C          25.1800   -1.1870  122.8930 C.ar    1  UNL1       -0.0585
     68 C          22.7200   -0.1010  122.1510 C.ar    1  UNL1       -0.0615
     69 C          24.3860   -1.8350  121.9460 C.ar    1  UNL1       -0.0615
     70 C          23.1570   -1.2930  121.5750 C.ar    1  UNL1       -0.0617
     71 N          26.6870    3.0790  121.8410 N.am    1  UNL1       -0.2997
     72 C          26.4170    4.3170  121.1200 C.3     1  UNL1        0.1340
     73 C          26.3280    4.0080  119.6200 C.2     1  UNL1        0.2399
     74 O          27.1980    3.3320  119.0660 O.2     1  UNL1       -0.2734
     75 C          27.6070    5.2780  121.2510 C.3     1  UNL1        0.1193
     76 O          27.5760    6.0110  122.4830 O.3     1  UNL1       -0.4610
     77 N          25.3070    4.5880  118.9050 N.am    1  UNL1       -0.2883
     78 C          25.2950    4.6090  117.4420 C.3     1  UNL1        0.1025
     79 C          25.8010    5.9850  116.9230 C.2     1  UNL1        0.2365
     80 O          25.1760    7.0210  117.1830 O.2     1  UNL1       -0.2735
     81 C          23.8080    4.4390  117.1170 C.3     1  UNL1       -0.0243
     82 C          23.0870    5.1450  118.2650 C.3     1  UNL1       -0.0350
     83 C          24.0180    4.9800  119.4590 C.3     1  UNL1        0.0156
     84 N          26.9680    6.0580  116.1730 N.am    1  UNL1       -0.2917
     85 C          27.1670    7.2660  115.3740 C.3     1  UNL1        0.0040
     86 C          28.1400    5.1620  116.3520 C.3     1  UNL1        0.0991
     87 C          28.5170    4.4470  115.0590 C.3     1  UNL1       -0.0379
     88 C          29.3470    5.9240  116.9730 C.2     1  UNL1        0.2339
     89 O          30.5120    5.7240  116.6430 O.2     1  UNL1       -0.2738
     90 N          28.9950    6.7710  118.0060 N.am    1  UNL1       -0.3027
     91 C          29.9700    7.5000  118.8340 C.3     1  UNL1        0.0968
     92 C          30.1640    6.6560  120.1350 C.2     1  UNL1        0.2363
     93 O          30.3840    5.4430  120.0200 O.2     1  UNL1       -0.2736
     94 C          29.4930    8.9390  118.9140 C.3     1  UNL1       -0.0381
     95 C          28.6880    5.9560  123.2590 C.2     1  UNL1        0.3279
     96 N          30.0240    7.1860  121.4040 N.am    1  UNL1       -0.2862
     97 O          28.5870    5.6470  124.4450 O.2     1  UNL1       -0.2487
     98 C          30.0550    6.3110  122.6030 C.3     1  UNL1        0.1233
     99 C          30.9060    7.1250  123.5820 C.3     1  UNL1       -0.0199
    100 C          30.2450    8.5730  121.7940 C.3     1  UNL1        0.0182
    101 C          31.4260    9.6020  123.8020 C.3     1  UNL1       -0.0609
    102 C          30.4410    8.5560  123.3120 C.3     1  UNL1       -0.0258
@<TRIPOS>BOND
     1    40    87    1
     2     8    85    1
     3    41    87    1
     4    87    38    1
     5    87    86    1
     6     7    85    1
     7    85     9    1
     8    85    84    1
     9    28    81    1
    10    84    86    1
    11    84    79   am
    12    86    88    1
    13    86    39    1
    14    89    88    2
    15    79    80    2
    16    79    78    1
    17    88    90   am
    18    24    78    1
    19    81    25    1
    20    81    78    1
    21    81    82    1
    22    78    77    1
    23    33    94    1
    24    90    31    1
    25    90    91    1
    26    29    82    1
    27    82    26    1
    28    82    83    1
    29    32    91    1
    30    91    94    1
    31    91    92    1
    32    77    83    1
    33    77    73   am
    34    94    34    1
    35    94    30    1
    36    74    73    2
    37    83    23    1
    38    83    27    1
    39    73    72    1
    40    93    92    2
    41    92    96   am
    42    19    75    1
    43    10    70    1
    44    72    75    1
    45    72    21    1
    46    72    71    1
    47    22    75    1
    48    75    76    1
    49    49   100    1
    50    96   100    1
    51    96    98    1
    52    20    71    1
    53    17    69    1
    54    45   100    1
    55    70    69   ar
    56    70    68   ar
    57   100   102    1
    58    71    62   am
    59    16    68    1
    60    69    67   ar
    61    68    66   ar
    62    43    98    1
    63    76    95    1
    64    98    95    1
    65    98    99    1
    66    67    15    1
    67    67    65   ar
    68    12    61    1
    69    62    63    2
    70    62    61    1
    71    66    65   ar
    72    66    14    1
    73    95    97    2
    74   102    99    1
    75   102   101    1
    76   102    42    1
    77    44    99    1
    78    46   101    1
    79    59    51    2
    80    65    64    1
    81    47   101    1
    82    99    48    1
    83    61    64    1
    84    61    60    1
    85   101    50    1
    86     2    53    1
    87    51    60   am
    88    51    52    1
    89    64    13    1
    90    64    18    1
    91    60    11    1
    92     4    55    1
    93    53    52    2
    94    53    54    1
    95    52     1    1
    96     6    57    1
    97    55    54    2
    98    55    56    1
    99    54     3    1
   100    57    56    2
   101    57    58    1
   102    56     5    1
   103    36    58    1
   104    58    37    1
   105    58    35    1
