@<TRIPOS>MOLECULE
116.74390
 102 105 0 0 0
SMALL
GASTEIGER

@<TRIPOS>ATOM
      1 H          29.1320    0.7960  125.8920 H       1  UNL1        0.0669
      2 H          32.0410    1.8100  125.9610 H       1  UNL1        0.0619
      3 H          29.9960    1.0650  128.1980 H       1  UNL1        0.0618
      4 H          32.8540    2.1990  128.2510 H       1  UNL1        0.0617
      5 H          30.8060    1.4400  130.4750 H       1  UNL1        0.0614
      6 H          33.6380    2.6320  130.5380 H       1  UNL1        0.0569
      7 H          25.0560    6.6290  114.6030 H       1  UNL1        0.0429
      8 H          26.2820    6.1470  113.4280 H       1  UNL1        0.0429
      9 H          26.7710    6.8750  114.9820 H       1  UNL1        0.0429
     10 H          29.7830    0.9260  115.8270 H       1  UNL1        0.0618
     11 H          28.2400    0.9270  123.8410 H       1  UNL1        0.1498
     12 H          29.6560    2.1670  121.6670 H       1  UNL1        0.0598
     13 H          28.8500   -0.8000  121.3610 H       1  UNL1        0.0336
     14 H          27.9040   -0.9840  119.1810 H       1  UNL1        0.0620
     15 H          31.3470    1.5560  119.7720 H       1  UNL1        0.0620
     16 H          28.0230   -0.5610  116.7520 H       1  UNL1        0.0618
     17 H          31.4370    1.9780  117.3420 H       1  UNL1        0.0618
     18 H          30.5090   -0.2730  121.5080 H       1  UNL1        0.0336
     19 H          25.6500    3.8780  121.8660 H       1  UNL1        0.0721
     20 H          28.1300    2.6520  119.9040 H       1  UNL1        0.1496
     21 H          25.3240    1.9200  120.2780 H       1  UNL1        0.0629
     22 H          24.5190    4.2510  120.5400 H       1  UNL1        0.0721
     23 H          23.3160    2.9080  119.1350 H       1  UNL1        0.0465
     24 H          25.7850    2.3640  115.9220 H       1  UNL1        0.0597
     25 H          23.7380    1.3530  115.6380 H       1  UNL1        0.0288
     26 H          21.8620    1.9210  117.0430 H       1  UNL1        0.0281
     27 H          23.7140    1.3040  118.4770 H       1  UNL1        0.0465
     28 H          23.2530    2.9160  114.9550 H       1  UNL1        0.0288
     29 H          22.3250    3.6300  117.0770 H       1  UNL1        0.0281
     30 H          29.1910    7.9460  116.4870 H       1  UNL1        0.0252
     31 H          27.6730    4.9300  117.2740 H       1  UNL1        0.1495
     32 H          30.2630    5.3580  117.6920 H       1  UNL1        0.0592
     33 H          30.6940    7.1050  116.1520 H       1  UNL1        0.0252
     34 H          30.5000    7.9620  117.6830 H       1  UNL1        0.0252
     35 H          31.5730    1.8640  132.7290 H       1  UNL1        0.0272
     36 H          32.6370    3.2800  132.7880 H       1  UNL1        0.0272
     37 H          33.3270    1.6470  132.8670 H       1  UNL1        0.0272
     38 H          28.5450    3.1180  113.3400 H       1  UNL1        0.0252
     39 H          27.4370    3.2220  115.4720 H       1  UNL1        0.0594
     40 H          27.8430    4.6420  112.8060 H       1  UNL1        0.0252
     41 H          26.8010    3.2270  113.0360 H       1  UNL1        0.0252
     42 H          24.9330    7.4550  119.0210 H       1  UNL1        0.0314
     43 H          28.0580    7.6030  121.1960 H       1  UNL1        0.0616
     44 H          26.8540    9.4720  120.2900 H       1  UNL1        0.0292
     45 H          26.5890    6.9780  117.4050 H       1  UNL1        0.0467
     46 H          25.7800   10.2780  118.1640 H       1  UNL1        0.0233
     47 H          24.6840    9.2070  117.2760 H       1  UNL1        0.0233
     48 H          25.5040    8.6320  121.0780 H       1  UNL1        0.0292
     49 H          27.4680    8.5020  117.6930 H       1  UNL1        0.0467
     50 H          24.2190    9.8280  118.8700 H       1  UNL1        0.0233
     51 C          30.2880    1.2390  124.0620 C.2     1  UNL1        0.2375
     52 C          30.0950    1.1280  125.5280 C.2     1  UNL1        0.0001
     53 C          31.0880    1.4670  126.3630 C.2     1  UNL1       -0.0569
     54 C          30.9440    1.4260  127.8020 C.2     1  UNL1       -0.0616
     55 C          31.9080    1.8290  128.6430 C.2     1  UNL1       -0.0621
     56 C          31.7470    1.8150  130.0790 C.2     1  UNL1       -0.0659
     57 C          32.6950    2.2500  130.9230 C.2     1  UNL1       -0.0871
     58 C          32.5430    2.2580  132.4090 C.3     1  UNL1       -0.0465
     59 O          31.3730    1.4620  123.5420 O.2     1  UNL1       -0.2708
     60 N          29.1210    1.0920  123.3650 N.am    1  UNL1       -0.3002
     61 C          29.0480    1.2890  121.9180 C.3     1  UNL1        0.1036
     62 C          27.5720    1.5960  121.6080 C.2     1  UNL1        0.2344
     63 O          26.6510    1.1870  122.3180 O.2     1  UNL1       -0.2738
     64 C          29.5200    0.0440  121.1500 C.3     1  UNL1       -0.0006
     65 C          29.6120    0.2610  119.6570 C.ar    1  UNL1       -0.0451
     66 C          28.6840   -0.3340  118.7910 C.ar    1  UNL1       -0.0585
     67 C          30.6080    1.0900  119.1210 C.ar    1  UNL1       -0.0585
     68 C          28.7450   -0.0950  117.4170 C.ar    1  UNL1       -0.0615
     69 C          30.6640    1.3300  117.7480 C.ar    1  UNL1       -0.0615
     70 C          29.7320    0.7390  116.8960 C.ar    1  UNL1       -0.0617
     71 N          27.3490    2.3400  120.4800 N.am    1  UNL1       -0.2997
     72 C          26.0100    2.7430  120.0550 C.3     1  UNL1        0.1340
     73 C          26.0760    2.9830  118.5380 C.2     1  UNL1        0.2399
     74 O          27.1260    3.3560  118.0010 O.2     1  UNL1       -0.2734
     75 C          25.5600    4.0160  120.7820 C.3     1  UNL1        0.1193
     76 O          26.3630    5.1220  120.3380 O.3     1  UNL1       -0.4610
     77 N          24.9400    2.8200  117.7870 N.am    1  UNL1       -0.2883
     78 C          24.9860    2.9810  116.3310 C.3     1  UNL1        0.1025
     79 C          25.1210    4.4750  115.9390 C.2     1  UNL1        0.2365
     80 O          24.2940    5.2940  116.3580 O.2     1  UNL1       -0.2735
     81 C          23.6380    2.4240  115.8540 C.3     1  UNL1       -0.0243
     82 C          22.7150    2.6060  117.0550 C.3     1  UNL1       -0.0350
     83 C          23.6350    2.3710  118.2400 C.3     1  UNL1        0.0156
     84 N          26.1510    4.8710  115.0880 N.am    1  UNL1       -0.2917
     85 C          26.0580    6.2050  114.4960 C.3     1  UNL1        0.0040
     86 C          27.4400    4.1480  114.8970 C.3     1  UNL1        0.0991
     87 C          27.6660    3.7650  113.4370 C.3     1  UNL1       -0.0379
     88 C          28.6380    4.9500  115.4790 C.2     1  UNL1        0.2339
     89 O          29.7050    5.0840  114.8880 O.2     1  UNL1       -0.2738
     90 N          28.4320    5.3890  116.7670 N.am    1  UNL1       -0.3027
     91 C          29.4330    6.0670  117.5800 C.3     1  UNL1        0.0968
     92 C          28.8900    6.3360  119.0070 C.2     1  UNL1        0.2363
     93 O          29.5220    5.9350  119.9900 O.2     1  UNL1       -0.2736
     94 C          29.9780    7.3430  116.9460 C.3     1  UNL1       -0.0381
     95 C          26.4490    6.1900  121.1730 C.2     1  UNL1        0.3279
     96 N          27.7350    7.0740  119.1780 N.am    1  UNL1       -0.2862
     97 O          25.9140    6.2540  122.2740 O.2     1  UNL1       -0.2487
     98 C          27.2250    7.3540  120.5290 C.3     1  UNL1        0.1233
     99 C          26.2800    8.5380  120.3120 C.3     1  UNL1       -0.0199
    100 C          26.8950    7.6980  118.1630 C.3     1  UNL1        0.0182
    101 C          25.0600    9.4600  118.2730 C.3     1  UNL1       -0.0609
    102 C          25.6900    8.2450  118.9290 C.3     1  UNL1       -0.0258
@<TRIPOS>BOND
     1    40    87    1
     2    41    87    1
     3    38    87    1
     4     8    85    1
     5    87    86    1
     6    85     7    1
     7    85     9    1
     8    85    84    1
     9    89    88    2
    10    86    84    1
    11    86    39    1
    12    86    88    1
    13    28    81    1
    14    84    79   am
    15    88    90   am
    16    25    81    1
    17    10    70    1
    18    81    78    1
    19    81    82    1
    20    24    78    1
    21    79    78    1
    22    79    80    2
    23    33    94    1
    24    78    77    1
    25    30    94    1
    26    16    68    1
    27    90    31    1
    28    90    91    1
    29    70    68   ar
    30    70    69   ar
    31    94    91    1
    32    94    34    1
    33    26    82    1
    34    82    29    1
    35    82    83    1
    36    47   101    1
    37    17    69    1
    38    45   100    1
    39    68    66   ar
    40    91    32    1
    41    91    92    1
    42    49   100    1
    43    69    67   ar
    44    77    83    1
    45    77    73   am
    46    74    73    2
    47   100   102    1
    48   100    96    1
    49    46   101    1
    50    83    27    1
    51    83    23    1
    52   101    50    1
    53   101   102    1
    54    73    72    1
    55    66    14    1
    56    66    65   ar
    57   102    42    1
    58   102    99    1
    59    92    96   am
    60    92    93    2
    61    67    65   ar
    62    67    15    1
    63    96    98    1
    64    65    64    1
    65    20    71    1
    66    72    21    1
    67    72    71    1
    68    72    75    1
    69    44    99    1
    70    99    98    1
    71    99    48    1
    72    76    75    1
    73    76    95    1
    74    71    62   am
    75    98    95    1
    76    98    43    1
    77    22    75    1
    78    75    19    1
    79    64    13    1
    80    64    18    1
    81    64    61    1
    82    95    97    2
    83    62    61    1
    84    62    63    2
    85    12    61    1
    86    61    60    1
    87    60    11    1
    88    60    51   am
    89    59    51    2
    90    51    52    1
    91    52     1    1
    92    52    53    2
    93     2    53    1
    94    53    54    1
    95    54     3    1
    96    54    55    2
    97     4    55    1
    98    55    56    1
    99    56     5    1
   100    56    57    2
   101     6    57    1
   102    57    58    1
   103    58    35    1
   104    58    36    1
   105    58    37    1
