@<TRIPOS>MOLECULE
120.73841
 102 105 0 0 0
SMALL
GASTEIGER

@<TRIPOS>ATOM
      1 H          30.5720    4.8100  124.0470 H       1  UNL1        0.0669
      2 H          31.6460    3.5210  121.4600 H       1  UNL1        0.0619
      3 H          32.3770    6.1530  122.9710 H       1  UNL1        0.0618
      4 H          33.3310    4.8940  120.3320 H       1  UNL1        0.0617
      5 H          34.1020    7.5020  121.8560 H       1  UNL1        0.0614
      6 H          35.0450    6.2400  119.2160 H       1  UNL1        0.0569
      7 H          23.8230    5.5210  115.9460 H       1  UNL1        0.0429
      8 H          24.1850    4.0600  115.0210 H       1  UNL1        0.0429
      9 H          25.5110    5.1120  115.5820 H       1  UNL1        0.0429
     10 H          27.5050    4.4490  129.8310 H       1  UNL1        0.0618
     11 H          28.6180    3.8720  124.6300 H       1  UNL1        0.1498
     12 H          27.8110    1.3100  123.3300 H       1  UNL1        0.0598
     13 H          28.5190    0.6320  125.5240 H       1  UNL1        0.0336
     14 H          29.7380    2.1900  126.9460 H       1  UNL1        0.0620
     15 H          25.4280    2.3140  126.7410 H       1  UNL1        0.0620
     16 H          29.6770    3.6510  128.9360 H       1  UNL1        0.0618
     17 H          25.3870    3.7750  128.7290 H       1  UNL1        0.0618
     18 H          26.7730    0.5800  125.4910 H       1  UNL1        0.0336
     19 H          25.6870    6.4990  123.4310 H       1  UNL1        0.0721
     20 H          27.3440    4.1720  122.8550 H       1  UNL1        0.1496
     21 H          24.3970    4.3550  123.1160 H       1  UNL1        0.0629
     22 H          24.5580    6.5610  122.0830 H       1  UNL1        0.0721
     23 H          22.5280    5.0540  121.7310 H       1  UNL1        0.0465
     24 H          24.2300    2.3250  119.2210 H       1  UNL1        0.0597
     25 H          22.0580    1.7650  119.7840 H       1  UNL1        0.0288
     26 H          20.5650    3.3890  120.7590 H       1  UNL1        0.0281
     27 H          22.5340    3.3200  122.1410 H       1  UNL1        0.0465
     28 H          21.6400    2.7490  118.3690 H       1  UNL1        0.0288
     29 H          21.2250    4.6930  119.7630 H       1  UNL1        0.0281
     30 H          29.3130    5.9230  116.6260 H       1  UNL1        0.0252
     31 H          26.2200    5.3320  117.6810 H       1  UNL1        0.1495
     32 H          28.3400    5.0620  119.4130 H       1  UNL1        0.0592
     33 H          29.8890    4.5270  117.5430 H       1  UNL1        0.0252
     34 H          30.2370    6.1620  118.1150 H       1  UNL1        0.0252
     35 H          35.8100    8.8240  120.7590 H       1  UNL1        0.0272
     36 H          35.6970    8.6910  118.9950 H       1  UNL1        0.0272
     37 H          36.9490    7.7930  119.8750 H       1  UNL1        0.0272
     38 H          26.6530    1.3070  115.9170 H       1  UNL1        0.0252
     39 H          25.4950    2.1250  117.8590 H       1  UNL1        0.0594
     40 H          26.3240    2.7770  115.0050 H       1  UNL1        0.0252
     41 H          24.9900    1.6900  115.4440 H       1  UNL1        0.0252
     42 H          27.5140    9.4070  121.9570 H       1  UNL1        0.0314
     43 H          29.5230    6.4180  120.6660 H       1  UNL1        0.0616
     44 H          30.3430    8.6350  121.0820 H       1  UNL1        0.0292
     45 H          26.8170    9.3430  119.7040 H       1  UNL1        0.0467
     46 H          29.7700   11.0380  120.6630 H       1  UNL1        0.0233
     47 H          28.1600   11.6440  121.0830 H       1  UNL1        0.0233
     48 H          29.5710    8.3150  122.6480 H       1  UNL1        0.0292
     49 H          28.4520    9.6250  119.0660 H       1  UNL1        0.0467
     50 H          29.2700   11.1170  122.3600 H       1  UNL1        0.0233
     51 C          29.8160    2.8920  123.2470 C.2     1  UNL1        0.2375
     52 C          30.6910    4.0890  123.2480 C.2     1  UNL1        0.0001
     53 C          31.5700    4.2680  122.2510 C.2     1  UNL1       -0.0569
     54 C          32.4300    5.4270  122.1620 C.2     1  UNL1       -0.0616
     55 C          33.2740    5.6230  121.1390 C.2     1  UNL1       -0.0621
     56 C          34.1440    6.7740  121.0480 C.2     1  UNL1       -0.0659
     57 C          34.9910    6.9640  120.0260 C.2     1  UNL1       -0.0871
     58 C          35.9100    8.1370  119.9140 C.3     1  UNL1       -0.0465
     59 O          30.0290    1.9140  122.5470 O.2     1  UNL1       -0.2708
     60 N          28.7380    3.0290  124.0790 N.am    1  UNL1       -0.3002
     61 C          27.6530    2.0390  124.1360 C.3     1  UNL1        0.1036
     62 C          26.2920    2.6960  123.8050 C.2     1  UNL1        0.2344
     63 O          25.2060    2.1620  124.0160 O.2     1  UNL1       -0.2738
     64 C          27.6270    1.2690  125.4640 C.3     1  UNL1       -0.0006
     65 C          27.5880    2.1500  126.6930 C.ar    1  UNL1       -0.0451
     66 C          28.7790    2.5360  127.3250 C.ar    1  UNL1       -0.0585
     67 C          26.3670    2.6060  127.2080 C.ar    1  UNL1       -0.0585
     68 C          28.7490    3.3630  128.4490 C.ar    1  UNL1       -0.0615
     69 C          26.3400    3.4320  128.3330 C.ar    1  UNL1       -0.0615
     70 C          27.5290    3.8110  128.9520 C.ar    1  UNL1       -0.0617
     71 N          26.4060    3.8830  123.1180 N.am    1  UNL1       -0.2997
     72 C          25.2770    4.5680  122.5030 C.3     1  UNL1        0.1340
     73 C          25.0960    3.9910  121.0890 C.2     1  UNL1        0.2399
     74 O          26.0750    3.6990  120.3970 O.2     1  UNL1       -0.2734
     75 C          25.4820    6.0880  122.4350 C.3     1  UNL1        0.1193
     76 O          26.5110    6.5170  121.5170 O.3     1  UNL1       -0.4610
     77 N          23.8200    3.8360  120.6000 N.am    1  UNL1       -0.2883
     78 C          23.5990    3.2070  119.2960 C.3     1  UNL1        0.1025
     79 C          23.8030    4.2100  118.1270 C.2     1  UNL1        0.2365
     80 O          23.1790    5.2780  118.1360 O.2     1  UNL1       -0.2735
     81 C          22.1280    2.7690  119.3490 C.3     1  UNL1       -0.0243
     82 C          21.4800    3.7720  120.2990 C.3     1  UNL1       -0.0350
     83 C          22.5740    4.0420  121.3180 C.3     1  UNL1        0.0156
     84 N          24.6330    3.8810  117.0520 N.am    1  UNL1       -0.2917
     85 C          24.5330    4.6970  115.8400 C.3     1  UNL1        0.0040
     86 C          25.7340    2.8770  117.1090 C.3     1  UNL1        0.0991
     87 C          25.9330    2.1240  115.7920 C.3     1  UNL1       -0.0379
     88 C          27.0920    3.4730  117.5710 C.2     1  UNL1        0.2339
     89 O          28.0920    2.7710  117.7080 O.2     1  UNL1       -0.2738
     90 N          27.0950    4.8280  117.7930 N.am    1  UNL1       -0.3027
     91 C          28.1810    5.5420  118.4440 C.3     1  UNL1        0.0968
     92 C          27.7280    7.0080  118.6120 C.2     1  UNL1        0.2363
     93 O          27.0760    7.5680  117.7230 O.2     1  UNL1       -0.2736
     94 C          29.4760    5.5350  117.6380 C.3     1  UNL1       -0.0381
     95 C          27.8000    6.5040  121.9490 C.2     1  UNL1        0.3279
     96 N          28.1180    7.6940  119.7400 N.am    1  UNL1       -0.2862
     97 O          28.1610    6.0440  123.0280 O.2     1  UNL1       -0.2487
     98 C          28.7680    7.1600  120.9400 C.3     1  UNL1        0.1233
     99 C          29.3880    8.4080  121.5730 C.3     1  UNL1       -0.0199
    100 C          27.8790    9.1240  119.8540 C.3     1  UNL1        0.0182
    101 C          28.9230   10.9030  121.3440 C.3     1  UNL1       -0.0609
    102 C          28.3550    9.4980  121.2570 C.3     1  UNL1       -0.0258
@<TRIPOS>BOND
     1    40    87    1
     2     8    85    1
     3    41    87    1
     4     9    85    1
     5    87    38    1
     6    87    86    1
     7    85     7    1
     8    85    84    1
     9    30    94    1
    10    84    86    1
    11    84    79   am
    12    86    88    1
    13    86    39    1
    14    33    94    1
    15    88    89    2
    16    88    90   am
    17    94    34    1
    18    94    91    1
    19    31    90    1
    20    93    92    2
    21    90    91    1
    22    79    80    2
    23    79    78    1
    24    28    81    1
    25    91    92    1
    26    91    32    1
    27    92    96   am
    28    36    58    1
    29    49   100    1
    30     6    57    1
    31    24    78    1
    32    78    81    1
    33    78    77    1
    34    81    25    1
    35    81    82    1
    36    45   100    1
    37    96   100    1
    38    96    98    1
    39    29    82    1
    40   100   102    1
    41    37    58    1
    42    58    57    1
    43    58    35    1
    44    57    56    2
    45    82    26    1
    46    82    83    1
    47     4    55    1
    48    74    73    2
    49    77    73   am
    50    77    83    1
    51    46   101    1
    52    43    98    1
    53    98    99    1
    54    98    95    1
    55    56    55    1
    56    56     5    1
    57    44    99    1
    58    47   101    1
    59    73    72    1
    60    55    54    2
    61   102   101    1
    62   102    99    1
    63   102    42    1
    64    83    23    1
    65    83    27    1
    66   101    50    1
    67     2    53    1
    68    76    95    1
    69    76    75    1
    70    99    48    1
    71    95    97    2
    72    22    75    1
    73    54    53    1
    74    54     3    1
    75    53    52    2
    76    75    72    1
    77    75    19    1
    78    72    21    1
    79    72    71    1
    80    59    51    2
    81    20    71    1
    82    71    62   am
    83    51    52    1
    84    51    60   am
    85    52     1    1
    86    12    61    1
    87    62    63    2
    88    62    61    1
    89    60    61    1
    90    60    11    1
    91    61    64    1
    92    64    18    1
    93    64    13    1
    94    64    65    1
    95    65    67   ar
    96    65    66   ar
    97    15    67    1
    98    14    66    1
    99    67    69   ar
   100    66    68   ar
   101    69    17    1
   102    69    70   ar
   103    68    16    1
   104    68    70   ar
   105    70    10    1
