@<TRIPOS>MOLECULE
111.75044
 102 105 0 0 0
SMALL
GASTEIGER

@<TRIPOS>ATOM
      1 H          36.0560    4.1380  121.1840 H       1  UNL1        0.0669
      2 H          37.8500    4.2840  123.6860 H       1  UNL1        0.0619
      3 H          38.1310    2.8000  120.9560 H       1  UNL1        0.0618
      4 H          39.8410    2.8500  123.5120 H       1  UNL1        0.0617
      5 H          40.1230    1.3830  120.7760 H       1  UNL1        0.0614
      6 H          41.8030    1.3860  123.3510 H       1  UNL1        0.0569
      7 H          28.6810    6.1680  120.2400 H       1  UNL1        0.0429
      8 H          27.2840    5.4770  119.3860 H       1  UNL1        0.0429
      9 H          28.9200    4.8200  119.1170 H       1  UNL1        0.0429
     10 H          29.6300    9.9930  126.1800 H       1  UNL1        0.0618
     11 H          33.9530    4.7320  121.7330 H       1  UNL1        0.1498
     12 H          33.4370    5.9930  124.3380 H       1  UNL1        0.0598
     13 H          32.5250    7.4150  121.7570 H       1  UNL1        0.0336
     14 H          30.2150    7.7890  122.5490 H       1  UNL1        0.0620
     15 H          33.5860    8.7410  125.0820 H       1  UNL1        0.0620
     16 H          28.7180    8.9350  124.1270 H       1  UNL1        0.0618
     17 H          32.0640    9.8960  126.6470 H       1  UNL1        0.0618
     18 H          33.8930    7.9510  122.7060 H       1  UNL1        0.0336
     19 H          29.6670    1.9760  125.1010 H       1  UNL1        0.0721
     20 H          31.3950    5.4250  125.1130 H       1  UNL1        0.1496
     21 H          29.7350    3.8390  123.2670 H       1  UNL1        0.0629
     22 H          31.1240    2.7300  125.7360 H       1  UNL1        0.0721
     23 H          26.7080    5.9680  125.7730 H       1  UNL1        0.0465
     24 H          27.7320    2.9200  123.2700 H       1  UNL1        0.0597
     25 H          25.4790    2.8100  123.9320 H       1  UNL1        0.0288
     26 H          24.3950    4.7430  124.9070 H       1  UNL1        0.0281
     27 H          26.3530    4.2880  126.2420 H       1  UNL1        0.0465
     28 H          25.2160    3.8360  122.5080 H       1  UNL1        0.0288
     29 H          25.2900    5.8490  123.8530 H       1  UNL1        0.0281
     30 H          32.0060    4.5180  118.9400 H       1  UNL1        0.0252
     31 H          30.4040    3.6220  120.9670 H       1  UNL1        0.1495
     32 H          31.5670    1.5030  119.2050 H       1  UNL1        0.0592
     33 H          31.1100    3.4940  117.8100 H       1  UNL1        0.0252
     34 H          32.8550    3.2620  118.0230 H       1  UNL1        0.0252
     35 H          42.0600   -0.0600  120.6130 H       1  UNL1        0.0272
     36 H          42.4610   -0.7780  122.1830 H       1  UNL1        0.0272
     37 H          43.4190    0.5770  121.5560 H       1  UNL1        0.0272
     38 H          26.5380    1.5090  119.5620 H       1  UNL1        0.0252
     39 H          27.8110    2.2530  121.4770 H       1  UNL1        0.0594
     40 H          26.7460    3.0590  118.7430 H       1  UNL1        0.0252
     41 H          25.7670    2.9630  120.2160 H       1  UNL1        0.0252
     42 H          33.3270    0.3410  124.2770 H       1  UNL1        0.0314
     43 H          31.1780    0.2500  121.0540 H       1  UNL1        0.0616
     44 H          32.7980   -1.3360  121.7830 H       1  UNL1        0.0292
     45 H          34.2950    2.0400  122.9930 H       1  UNL1        0.0467
     46 H          35.1610   -1.4060  122.5540 H       1  UNL1        0.0233
     47 H          35.6380   -0.5060  124.0020 H       1  UNL1        0.0233
     48 H          31.8190   -1.2400  123.2600 H       1  UNL1        0.0292
     49 H          34.8460    0.9310  121.7200 H       1  UNL1        0.0467
     50 H          34.4830   -1.8450  124.1310 H       1  UNL1        0.0233
     51 C          35.5110    5.2940  122.9840 C.2     1  UNL1        0.2375
     52 C          36.3940    4.4230  122.1720 C.2     1  UNL1        0.0001
     53 C          37.5520    3.9820  122.6830 C.2     1  UNL1       -0.0569
     54 C          38.4260    3.0800  121.9650 C.2     1  UNL1       -0.0616
     55 C          39.5480    2.5750  122.5000 C.2     1  UNL1       -0.0621
     56 C          40.4060    1.6530  121.7920 C.2     1  UNL1       -0.0659
     57 C          41.5120    1.1240  122.3360 C.2     1  UNL1       -0.0871
     58 C          42.4090    0.1630  121.6260 C.3     1  UNL1       -0.0465
     59 O          35.8990    5.8960  123.9760 O.2     1  UNL1       -0.2708
     60 N          34.2170    5.3050  122.5370 N.am    1  UNL1       -0.3002
     61 C          33.1590    5.9880  123.2770 C.3     1  UNL1        0.1036
     62 C          31.8780    5.1580  123.1030 C.2     1  UNL1        0.2344
     63 O          31.5080    4.7200  122.0110 O.2     1  UNL1       -0.2738
     64 C          32.9360    7.4190  122.7750 C.3     1  UNL1       -0.0006
     65 C          32.0160    8.1910  123.6940 C.ar    1  UNL1       -0.0451
     66 C          30.6400    8.2570  123.4360 C.ar    1  UNL1       -0.0585
     67 C          32.5220    8.7880  124.8570 C.ar    1  UNL1       -0.0585
     68 C          29.7860    8.9040  124.3290 C.ar    1  UNL1       -0.0615
     69 C          31.6660    9.4390  125.7450 C.ar    1  UNL1       -0.0615
     70 C          30.2980    9.4940  125.4830 C.ar    1  UNL1       -0.0617
     71 N          31.1800    4.9120  124.2610 N.am    1  UNL1       -0.2997
     72 C          30.0670    3.9720  124.2930 C.3     1  UNL1        0.1340
     73 C          28.9350    4.5180  125.1670 C.2     1  UNL1        0.2399
     74 O          29.1720    4.9660  126.2910 O.2     1  UNL1       -0.2734
     75 C          30.5170    2.6130  124.8310 C.3     1  UNL1        0.1193
     76 O          31.3520    1.9720  123.8430 O.3     1  UNL1       -0.4610
     77 N          27.6590    4.4650  124.6480 N.am    1  UNL1       -0.2883
     78 C          27.2570    3.8950  123.3550 C.3     1  UNL1        0.1025
     79 C          27.6410    4.8390  122.1810 C.2     1  UNL1        0.2365
     80 O          27.6110    6.0640  122.3440 O.2     1  UNL1       -0.2735
     81 C          25.7380    3.7690  123.4670 C.3     1  UNL1       -0.0243
     82 C          25.3550    4.9070  124.4110 C.3     1  UNL1       -0.0350
     83 C          26.5160    4.9600  125.3920 C.3     1  UNL1        0.0156
     84 N          27.9940    4.2920  120.9460 N.am    1  UNL1       -0.2917
     85 C          28.2410    5.2410  119.8610 C.3     1  UNL1        0.0040
     86 C          27.9130    2.8580  120.5770 C.3     1  UNL1        0.0991
     87 C          26.6700    2.5840  119.7270 C.3     1  UNL1       -0.0379
     88 C          29.1870    2.3070  119.8830 C.2     1  UNL1        0.2339
     89 O          29.1480    1.3550  119.1040 O.2     1  UNL1       -0.2738
     90 N          30.3860    2.8320  120.3170 N.am    1  UNL1       -0.3027
     91 C          31.6500    2.4940  119.6660 C.3     1  UNL1        0.0968
     92 C          32.8420    2.4330  120.6560 C.2     1  UNL1        0.2363
     93 O          33.8120    3.1900  120.5440 O.2     1  UNL1       -0.2736
     94 C          31.9220    3.4980  118.5460 C.3     1  UNL1       -0.0381
     95 C          30.7360    1.1380  122.9600 C.2     1  UNL1        0.3279
     96 N          32.8350    1.4400  121.6170 N.am    1  UNL1       -0.2862
     97 O          29.5510    0.8280  123.0230 O.2     1  UNL1       -0.2487
     98 C          31.7320    0.5350  121.9520 C.3     1  UNL1        0.1233
     99 C          32.4500   -0.6630  122.5760 C.3     1  UNL1       -0.0199
    100 C          34.0230    1.1570  122.4070 C.3     1  UNL1        0.0182
    101 C          34.7990   -1.0030  123.5050 C.3     1  UNL1       -0.0609
    102 C          33.6500   -0.0300  123.2970 C.3     1  UNL1       -0.0258
@<TRIPOS>BOND
     1    33    94    1
     2    34    94    1
     3    94    30    1
     4    94    91    1
     5    40    87    1
     6    89    88    2
     7     9    85    1
     8    32    91    1
     9     8    85    1
    10    38    87    1
    11    91    90    1
    12    91    92    1
    13    87    41    1
    14    87    86    1
    15    85     7    1
    16    85    84    1
    17    88    90   am
    18    88    86    1
    19    90    31    1
    20    93    92    2
    21    86    84    1
    22    86    39    1
    23    35    58    1
    24    92    96   am
    25     5    56    1
    26    84    79   am
    27     3    54    1
    28    43    98    1
    29     1    52    1
    30    37    58    1
    31    96    98    1
    32    96   100    1
    33    58    36    1
    34    58    57    1
    35    49   100    1
    36    11    60    1
    37    13    64    1
    38    44    99    1
    39    56    57    2
    40    56    55    1
    41    98    99    1
    42    98    95    1
    43    54    55    2
    44    54    53    1
    45    63    62    2
    46    52    53    2
    47    52    51    1
    48    79    80    2
    49    79    78    1
    50    57     6    1
    51   100    45    1
    52   100   102    1
    53    55     4    1
    54    28    81    1
    55    60    51   am
    56    60    61    1
    57    14    66    1
    58    46   101    1
    59    99    48    1
    60    99   102    1
    61    53     2    1
    62    18    64    1
    63    64    61    1
    64    64    65    1
    65    95    97    2
    66    95    76    1
    67    51    59    2
    68    62    61    1
    69    62    71   am
    70    21    72    1
    71    24    78    1
    72    61    12    1
    73   102   101    1
    74   102    42    1
    75    78    81    1
    76    78    77    1
    77    66    65   ar
    78    66    68   ar
    79    81    25    1
    80    81    82    1
    81   101    47    1
    82   101    50    1
    83    65    67   ar
    84    76    75    1
    85    29    82    1
    86    16    68    1
    87    71    72    1
    88    71    20    1
    89    72    75    1
    90    72    73    1
    91    68    70   ar
    92    82    26    1
    93    82    83    1
    94    77    73   am
    95    77    83    1
    96    75    19    1
    97    75    22    1
    98    67    15    1
    99    67    69   ar
   100    73    74    2
   101    83    23    1
   102    83    27    1
   103    70    69   ar
   104    70    10    1
   105    69    17    1
