@<TRIPOS>MOLECULE
115.94187
 102 105 0 0 0
SMALL
GASTEIGER

@<TRIPOS>ATOM
      1 H          28.9120   -5.4040  120.7440 H       1  UNL1        0.0669
      2 H          27.5140   -4.8200  118.0620 H       1  UNL1        0.0619
      3 H          29.4050   -3.1250  119.8740 H       1  UNL1        0.0618
      4 H          27.9940   -2.5820  117.1970 H       1  UNL1        0.0617
      5 H          29.8370   -0.8630  119.0300 H       1  UNL1        0.0614
      6 H          28.4350   -0.3260  116.3470 H       1  UNL1        0.0569
      7 H          24.3140   -2.4370  127.0660 H       1  UNL1        0.0429
      8 H          23.8340   -0.8250  126.5030 H       1  UNL1        0.0429
      9 H          25.4740   -1.4470  126.1690 H       1  UNL1        0.0429
     10 H          30.1720   -9.7210  126.2320 H       1  UNL1        0.0618
     11 H          28.0530   -7.2300  121.7310 H       1  UNL1        0.1498
     12 H          26.4810   -9.1160  120.0060 H       1  UNL1        0.0598
     13 H          28.6110  -10.1540  120.6160 H       1  UNL1        0.0336
     14 H          30.2650   -8.9670  122.0060 H       1  UNL1        0.0620
     15 H          26.8520  -10.9140  123.7920 H       1  UNL1        0.0620
     16 H          31.3310   -8.8250  124.2290 H       1  UNL1        0.0618
     17 H          27.9260  -10.7570  126.0020 H       1  UNL1        0.0618
     18 H          27.2600  -10.9950  121.3350 H       1  UNL1        0.0336
     19 H          24.6510   -9.0020  124.8260 H       1  UNL1        0.0721
     20 H          26.0380   -6.7920  122.2380 H       1  UNL1        0.1496
     21 H          23.4750   -7.8620  123.1080 H       1  UNL1        0.0629
     22 H          24.1320   -7.5330  125.6370 H       1  UNL1        0.0721
     23 H          21.8060   -7.0150  124.7000 H       1  UNL1        0.0465
     24 H          22.9170   -3.5600  122.8510 H       1  UNL1        0.0597
     25 H          20.6430   -3.9580  122.6490 H       1  UNL1        0.0288
     26 H          19.5480   -5.5890  124.0450 H       1  UNL1        0.0281
     27 H          21.4070   -6.7020  122.9920 H       1  UNL1        0.0465
     28 H          20.5280   -3.0750  124.1820 H       1  UNL1        0.0288
     29 H          20.5250   -5.1410  125.4500 H       1  UNL1        0.0281
     30 H          28.7070   -1.7420  124.8940 H       1  UNL1        0.0252
     31 H          25.8460   -3.5300  124.0940 H       1  UNL1        0.1495
     32 H          27.8530   -3.1650  122.3610 H       1  UNL1        0.0592
     33 H          28.9780   -1.3230  123.2150 H       1  UNL1        0.0252
     34 H          29.9010   -2.6450  123.9300 H       1  UNL1        0.0252
     35 H          30.2540    1.3740  118.2060 H       1  UNL1        0.0272
     36 H          28.8610    1.9940  117.3020 H       1  UNL1        0.0272
     37 H          30.2950    1.4120  116.4340 H       1  UNL1        0.0272
     38 H          24.0370    0.4010  122.7900 H       1  UNL1        0.0252
     39 H          23.9250   -1.9970  122.8760 H       1  UNL1        0.0594
     40 H          24.3260    0.5230  124.5260 H       1  UNL1        0.0252
     41 H          22.7590   -0.0550  123.9300 H       1  UNL1        0.0252
     42 H          27.3150   -4.8060  128.0620 H       1  UNL1        0.0314
     43 H          28.4690   -6.9700  125.0560 H       1  UNL1        0.0616
     44 H          29.6880   -6.4230  127.0340 H       1  UNL1        0.0292
     45 H          27.5910   -3.2080  126.3820 H       1  UNL1        0.0467
     46 H          30.3430   -4.3930  128.3170 H       1  UNL1        0.0233
     47 H          29.0840   -3.3770  129.0370 H       1  UNL1        0.0233
     48 H          28.1950   -7.0280  127.7810 H       1  UNL1        0.0292
     49 H          29.3460   -3.5000  126.2420 H       1  UNL1        0.0467
     50 H          29.2800   -5.0580  129.5670 H       1  UNL1        0.0233
     51 C          27.5700   -6.8490  119.7490 C.2     1  UNL1        0.2375
     52 C          28.2920   -5.5610  119.8730 C.2     1  UNL1        0.0001
     53 C          28.1490   -4.6230  118.9250 C.2     1  UNL1       -0.0569
     54 C          28.7850   -3.3270  119.0030 C.2     1  UNL1       -0.0616
     55 C          28.6180   -2.3820  118.0660 C.2     1  UNL1       -0.0621
     56 C          29.2240   -1.0740  118.1560 C.2     1  UNL1       -0.0659
     57 C          29.0490   -0.1270  117.2220 C.2     1  UNL1       -0.0871
     58 C          29.6520    1.2380  117.3010 C.3     1  UNL1       -0.0465
     59 O          26.9800   -7.1780  118.7280 O.2     1  UNL1       -0.2708
     60 N          27.6200   -7.6080  120.8900 N.am    1  UNL1       -0.3002
     61 C          26.9010   -8.8830  120.9930 C.3     1  UNL1        0.1036
     62 C          25.6760   -8.8070  121.9260 C.2     1  UNL1        0.2344
     63 O          24.9670   -9.7820  122.1770 O.2     1  UNL1       -0.2738
     64 C          27.8230  -10.0530  121.3740 C.3     1  UNL1       -0.0006
     65 C          28.4770   -9.9440  122.7350 C.ar    1  UNL1       -0.0451
     66 C          29.7390   -9.3550  122.8770 C.ar    1  UNL1       -0.0585
     67 C          27.8320  -10.4460  123.8740 C.ar    1  UNL1       -0.0585
     68 C          30.3460   -9.2740  124.1320 C.ar    1  UNL1       -0.0615
     69 C          28.4380  -10.3610  125.1290 C.ar    1  UNL1       -0.0615
     70 C          29.6960   -9.7770  125.2570 C.ar    1  UNL1       -0.0617
     71 N          25.4190   -7.5700  122.4590 N.am    1  UNL1       -0.2997
     72 C          24.3770   -7.3500  123.4570 C.3     1  UNL1        0.1340
     73 C          24.1020   -5.8380  123.5210 C.2     1  UNL1        0.2399
     74 O          25.0060   -5.0160  123.3370 O.2     1  UNL1       -0.2734
     75 C          24.7730   -7.9130  124.8340 C.3     1  UNL1        0.1193
     76 O          26.1710   -7.6860  125.1130 O.3     1  UNL1       -0.4610
     77 N          22.8210   -5.4130  123.7800 N.am    1  UNL1       -0.2883
     78 C          22.4990   -3.9830  123.7600 C.3     1  UNL1        0.1025
     79 C          23.0130   -3.2980  125.0520 C.2     1  UNL1        0.2365
     80 O          22.6110   -3.7120  126.1480 O.2     1  UNL1       -0.2735
     81 C          20.9680   -3.9510  123.6970 C.3     1  UNL1       -0.0243
     82 C          20.5420   -5.2580  124.3610 C.3     1  UNL1       -0.0350
     83 C          21.6350   -6.2330  123.9560 C.3     1  UNL1        0.0156
     84 N          23.9300   -2.2480  124.9810 N.am    1  UNL1       -0.2917
     85 C          24.4180   -1.7150  126.2510 C.3     1  UNL1        0.0040
     86 C          24.3560   -1.5220  123.7560 C.3     1  UNL1        0.0991
     87 C          23.8390   -0.0820  123.7530 C.3     1  UNL1       -0.0379
     88 C          25.8880   -1.5710  123.5040 C.2     1  UNL1        0.2339
     89 O          26.4910   -0.6780  122.9140 O.2     1  UNL1       -0.2738
     90 N          26.4780   -2.7670  123.8350 N.am    1  UNL1       -0.3027
     91 C          27.8360   -3.1460  123.4590 C.3     1  UNL1        0.0968
     92 C          28.0610   -4.6110  123.9120 C.2     1  UNL1        0.2363
     93 O          28.0260   -5.5320  123.0850 O.2     1  UNL1       -0.2736
     94 C          28.9150   -2.1690  123.9080 C.3     1  UNL1       -0.0381
     95 C          26.4710   -6.5440  125.7820 C.2     1  UNL1        0.3279
     96 N          28.1630   -4.8920  125.2580 N.am    1  UNL1       -0.2862
     97 O          25.6420   -5.8110  126.3080 O.2     1  UNL1       -0.2487
     98 C          27.9810   -6.2620  125.7310 C.3     1  UNL1        0.1233
     99 C          28.6060   -6.2590  127.1190 C.3     1  UNL1       -0.0199
    100 C          28.3700   -3.9760  126.3710 C.3     1  UNL1        0.0182
    101 C          29.3160   -4.3930  128.6990 C.3     1  UNL1       -0.0609
    102 C          28.3250   -4.8410  127.6360 C.3     1  UNL1       -0.0258
@<TRIPOS>BOND
     1     6    57    1
     2    37    58    1
     3     4    55    1
     4    57    58    1
     5    57    56    2
     6    58    36    1
     7    58    35    1
     8     2    53    1
     9    55    56    1
    10    55    54    2
    11    56     5    1
    12    59    51    2
    13    53    54    1
    14    53    52    2
    15    54     3    1
    16    51    52    1
    17    51    60   am
    18    52     1    1
    19    12    61    1
    20    13    64    1
    21    60    61    1
    22    60    11    1
    23    61    64    1
    24    61    62    1
    25    18    64    1
    26    64    65    1
    27    62    63    2
    28    62    71   am
    29    14    66    1
    30    20    71    1
    31    32    91    1
    32    71    72    1
    33    25    81    1
    34    65    66   ar
    35    65    67   ar
    36    38    87    1
    37    24    78    1
    38    39    86    1
    39    66    68   ar
    40    89    88    2
    41    27    83    1
    42    93    92    2
    43    21    72    1
    44    33    94    1
    45    74    73    2
    46    72    73    1
    47    72    75    1
    48    91    90    1
    49    91    94    1
    50    91    92    1
    51    88    86    1
    52    88    90   am
    53    73    77   am
    54    81    78    1
    55    81    28    1
    56    81    82    1
    57    87    86    1
    58    87    41    1
    59    87    40    1
    60    86    84    1
    61    78    77    1
    62    78    79    1
    63    77    83    1
    64    15    67    1
    65    90    31    1
    66    67    69   ar
    67    94    34    1
    68    94    30    1
    69    92    96   am
    70    83    82    1
    71    83    23    1
    72    26    82    1
    73    68    16    1
    74    68    70   ar
    75    82    29    1
    76    19    75    1
    77    75    76    1
    78    75    22    1
    79    84    79   am
    80    84    85    1
    81    79    80    2
    82    43    98    1
    83    76    95    1
    84    69    70   ar
    85    69    17    1
    86    70    10    1
    87    96    98    1
    88    96   100    1
    89    98    95    1
    90    98    99    1
    91    95    97    2
    92     9    85    1
    93    49   100    1
    94    85     8    1
    95    85     7    1
    96   100    45    1
    97   100   102    1
    98    44    99    1
    99    99   102    1
   100    99    48    1
   101   102    42    1
   102   102   101    1
   103    46   101    1
   104   101    47    1
   105   101    50    1
