@<TRIPOS>MOLECULE
143.36737
 102 105 0 0 0
SMALL
GASTEIGER

@<TRIPOS>ATOM
      1 H          28.8510    4.4730  126.6880 H       1  UNL1        0.0669
      2 H          31.7860    4.2430  125.7800 H       1  UNL1        0.0619
      3 H          30.1590    6.5220  127.1540 H       1  UNL1        0.0618
      4 H          33.1040    6.2460  126.3100 H       1  UNL1        0.0617
      5 H          31.4640    8.5430  127.6320 H       1  UNL1        0.0614
      6 H          34.4100    8.2630  126.8010 H       1  UNL1        0.0569
      7 H          26.2450    4.0450  115.5960 H       1  UNL1        0.0429
      8 H          27.9420    3.9160  115.1130 H       1  UNL1        0.0429
      9 H          27.4840    4.9030  116.5320 H       1  UNL1        0.0429
     10 H          26.6120   -4.9050  123.7390 H       1  UNL1        0.0618
     11 H          27.7180    2.5760  126.3960 H       1  UNL1        0.1498
     12 H          28.9600    0.3890  124.7560 H       1  UNL1        0.0598
     13 H          26.5530    0.1820  126.6790 H       1  UNL1        0.0336
     14 H          25.1250   -1.1650  125.2310 H       1  UNL1        0.0620
     15 H          29.2860   -2.2020  125.7290 H       1  UNL1        0.0620
     16 H          24.7380   -3.3140  124.0780 H       1  UNL1        0.0618
     17 H          28.8810   -4.3430  124.5690 H       1  UNL1        0.0618
     18 H          28.1680   -0.3480  127.0830 H       1  UNL1        0.0336
     19 H          26.8270    4.0850  120.9190 H       1  UNL1        0.0721
     20 H          28.5700    1.3070  122.7850 H       1  UNL1        0.1496
     21 H          25.7590    2.1300  122.1700 H       1  UNL1        0.0629
     22 H          28.3500    3.6940  121.7930 H       1  UNL1        0.0721
     23 H          24.3010    1.9940  120.5220 H       1  UNL1        0.0465
     24 H          27.2470    0.4780  118.1190 H       1  UNL1        0.0597
     25 H          25.3260   -0.8660  118.1010 H       1  UNL1        0.0288
     26 H          23.2490   -0.1070  119.0040 H       1  UNL1        0.0281
     27 H          24.6960    0.2880  120.8560 H       1  UNL1        0.0465
     28 H          24.8460    0.2850  116.8390 H       1  UNL1        0.0288
     29 H          23.4840    1.5270  118.3860 H       1  UNL1        0.0281
     30 H          29.1480    6.8030  117.8400 H       1  UNL1        0.0252
     31 H          28.3680    3.9770  118.9770 H       1  UNL1        0.1495
     32 H          31.0530    4.9510  119.3040 H       1  UNL1        0.0592
     33 H          30.8120    6.3950  117.4790 H       1  UNL1        0.0252
     34 H          30.4550    7.4400  118.8620 H       1  UNL1        0.0252
     35 H          32.7450   10.5470  128.0930 H       1  UNL1        0.0272
     36 H          34.0380   10.7770  126.9030 H       1  UNL1        0.0272
     37 H          34.4200   10.1490  128.5180 H       1  UNL1        0.0272
     38 H          30.3450    1.1810  116.0470 H       1  UNL1        0.0252
     39 H          28.8450    1.6310  117.8800 H       1  UNL1        0.0594
     40 H          29.5120    2.3170  114.9880 H       1  UNL1        0.0252
     41 H          28.6890    0.8390  115.5130 H       1  UNL1        0.0252
     42 H          25.5240    6.2740  120.9900 H       1  UNL1        0.0314
     43 H          28.8270    7.0250  122.7280 H       1  UNL1        0.0616
     44 H          27.3000    8.5910  121.9140 H       1  UNL1        0.0292
     45 H          27.0900    5.9320  119.1850 H       1  UNL1        0.0467
     46 H          25.9310    9.1090  119.8810 H       1  UNL1        0.0233
     47 H          24.8930    7.8590  119.1750 H       1  UNL1        0.0233
     48 H          26.1340    7.6820  122.8910 H       1  UNL1        0.0292
     49 H          27.8130    7.5460  119.4190 H       1  UNL1        0.0467
     50 H          24.5120    8.5330  120.7690 H       1  UNL1        0.0233
     51 C          29.6570    2.6750  125.6810 C.2     1  UNL1        0.2375
     52 C          29.7470    4.0350  126.2650 C.2     1  UNL1        0.0001
     53 C          30.9070    4.7070  126.2260 C.2     1  UNL1       -0.0569
     54 C          31.0500    6.0500  126.7440 C.2     1  UNL1       -0.0616
     55 C          32.2140    6.7170  126.7240 C.2     1  UNL1       -0.0621
     56 C          32.3530    8.0650  127.2270 C.2     1  UNL1       -0.0659
     57 C          33.5160    8.7330  127.2050 C.2     1  UNL1       -0.0871
     58 C          33.6820   10.1300  127.7100 C.3     1  UNL1       -0.0465
     59 O          30.5560    2.1660  125.0260 O.2     1  UNL1       -0.2708
     60 N          28.4580    2.0600  125.9340 N.am    1  UNL1       -0.3002
     61 C          28.0850    0.8160  125.2590 C.3     1  UNL1        0.1036
     62 C          27.0560    1.2610  124.2090 C.2     1  UNL1        0.2344
     63 O          25.8910    1.5340  124.4970 O.2     1  UNL1       -0.2738
     64 C          27.4840   -0.1970  126.2370 C.3     1  UNL1       -0.0006
     65 C          27.2320   -1.5320  125.5740 C.ar    1  UNL1       -0.0451
     66 C          25.9540   -1.8590  125.1000 C.ar    1  UNL1       -0.0585
     67 C          28.2840   -2.4370  125.3770 C.ar    1  UNL1       -0.0585
     68 C          25.7320   -3.0700  124.4430 C.ar    1  UNL1       -0.0615
     69 C          28.0590   -3.6470  124.7190 C.ar    1  UNL1       -0.0615
     70 C          26.7850   -3.9630  124.2520 C.ar    1  UNL1       -0.0617
     71 N          27.5870    1.4980  122.9610 N.am    1  UNL1       -0.2997
     72 C          26.8220    2.1860  121.9310 C.3     1  UNL1        0.1340
     73 C          27.1520    1.6040  120.5540 C.2     1  UNL1        0.2399
     74 O          28.3240    1.5300  120.1760 O.2     1  UNL1       -0.2734
     75 C          27.2580    3.6560  121.8280 C.3     1  UNL1        0.1193
     76 O          26.7880    4.4190  122.9410 O.3     1  UNL1       -0.4610
     77 N          26.1130    1.2930  119.7150 N.am    1  UNL1       -0.2883
     78 C          26.3290    1.0380  118.2910 C.3     1  UNL1        0.1025
     79 C          26.3190    2.4030  117.5470 C.2     1  UNL1        0.2365
     80 O          25.3160    3.1270  117.6020 O.2     1  UNL1       -0.2735
     81 C          25.1170    0.1910  117.8950 C.3     1  UNL1       -0.0243
     82 C          24.0020    0.6660  118.8230 C.3     1  UNL1       -0.0350
     83 C          24.7240    1.0780  120.0980 C.3     1  UNL1        0.0156
     84 N          27.4410    2.8340  116.8520 N.am    1  UNL1       -0.2917
     85 C          27.2710    3.9880  115.9710 C.3     1  UNL1        0.0040
     86 C          28.8280    2.3520  117.0650 C.3     1  UNL1        0.0991
     87 C          29.3710    1.6340  115.8320 C.3     1  UNL1       -0.0379
     88 C          29.7590    3.5020  117.5330 C.2     1  UNL1        0.2339
     89 O          30.8890    3.6700  117.0830 O.2     1  UNL1       -0.2738
     90 N          29.2540    4.2580  118.5770 N.am    1  UNL1       -0.3027
     91 C          30.0270    5.3310  119.1960 C.3     1  UNL1        0.0968
     92 C          29.5650    5.6470  120.6410 C.2     1  UNL1        0.2363
     93 O          30.3100    5.3820  121.5910 O.2     1  UNL1       -0.2736
     94 C          30.1100    6.5650  118.3030 C.3     1  UNL1       -0.0381
     95 C          27.4340    5.5430  123.3340 C.2     1  UNL1        0.3279
     96 N          28.3110    6.1720  120.8910 N.am    1  UNL1       -0.2862
     97 O          27.3910    5.8660  124.5240 O.2     1  UNL1       -0.2487
     98 C          27.9470    6.5520  122.2720 C.3     1  UNL1        0.1233
     99 C          26.8430    7.6040  122.0600 C.3     1  UNL1       -0.0199
    100 C          27.3530    6.6920  119.9250 C.3     1  UNL1        0.0182
    101 C          25.3290    8.2230  120.1110 C.3     1  UNL1       -0.0609
    102 C          26.1630    7.1390  120.7690 C.3     1  UNL1       -0.0258
@<TRIPOS>BOND
     1    40    87    1
     2     8    85    1
     3    41    87    1
     4     7    85    1
     5    87    38    1
     6    87    86    1
     7    85     9    1
     8    85    84    1
     9    28    81    1
    10    84    86    1
    11    84    79   am
    12    86    88    1
    13    86    39    1
    14    89    88    2
    15    33    94    1
    16    88    90   am
    17    79    80    2
    18    79    78    1
    19    30    94    1
    20    81    25    1
    21    81    78    1
    22    81    82    1
    23    24    78    1
    24    78    77    1
    25    94    34    1
    26    94    91    1
    27    29    82    1
    28    90    31    1
    29    90    91    1
    30    82    26    1
    31    82    83    1
    32    47   101    1
    33    45   100    1
    34    91    32    1
    35    91    92    1
    36    49   100    1
    37    77    83    1
    38    77    73   am
    39    46   101    1
    40   100   102    1
    41   100    96    1
    42    83    23    1
    43    83    27    1
    44   101    50    1
    45   101   102    1
    46    74    73    2
    47    73    72    1
    48    92    96   am
    49    92    93    2
    50   102    42    1
    51   102    99    1
    52    96    98    1
    53    19    75    1
    54    22    75    1
    55    75    72    1
    56    75    76    1
    57    44    99    1
    58    72    21    1
    59    72    71    1
    60    99    98    1
    61    99    48    1
    62    98    43    1
    63    98    95    1
    64    20    71    1
    65    76    95    1
    66    71    62   am
    67    95    97    2
    68    10    70    1
    69    16    68    1
    70    62    63    2
    71    62    61    1
    72    70    68   ar
    73    70    69   ar
    74    68    66   ar
    75    17    69    1
    76    69    67   ar
    77    12    61    1
    78    59    51    2
    79    66    14    1
    80    66    65   ar
    81    61    60    1
    82    61    64    1
    83    67    65   ar
    84    67    15    1
    85    65    64    1
    86    51    60   am
    87    51    52    1
    88     2    53    1
    89    60    11    1
    90    53    52    2
    91    53    54    1
    92    64    13    1
    93    64    18    1
    94    52     1    1
    95     4    55    1
    96    55    54    2
    97    55    56    1
    98    54     3    1
    99     6    57    1
   100    36    58    1
   101    57    56    2
   102    57    58    1
   103    56     5    1
   104    58    35    1
   105    58    37    1
