@<TRIPOS>MOLECULE
127.49394
 102 105 0 0 0
SMALL
GASTEIGER

@<TRIPOS>ATOM
      1 H          36.0140   -2.8360  118.0730 H       1  UNL1        0.0669
      2 H          39.0890   -3.0510  118.0970 H       1  UNL1        0.0619
      3 H          37.0110   -2.1240  120.2320 H       1  UNL1        0.0618
      4 H          40.0820   -2.2880  120.2100 H       1  UNL1        0.0617
      5 H          38.0030   -1.3730  122.3440 H       1  UNL1        0.0614
      6 H          41.0740   -1.5010  122.3110 H       1  UNL1        0.0569
      7 H          30.1060   -3.7370  111.0340 H       1  UNL1        0.0429
      8 H          28.5870   -3.1790  110.3030 H       1  UNL1        0.0429
      9 H          28.6760   -3.5340  112.0540 H       1  UNL1        0.0429
     10 H          36.7080   -6.7950  108.8550 H       1  UNL1        0.0618
     11 H          35.1280   -3.3240  116.1080 H       1  UNL1        0.1498
     12 H          36.7320   -3.4920  113.7140 H       1  UNL1        0.0598
     13 H          35.1780   -6.0540  114.4790 H       1  UNL1        0.0336
     14 H          34.1380   -6.3150  112.2580 H       1  UNL1        0.0620
     15 H          38.3750   -5.5810  112.6210 H       1  UNL1        0.0620
     16 H          34.4470   -6.8760  109.8750 H       1  UNL1        0.0618
     17 H          38.6670   -6.1470  110.2340 H       1  UNL1        0.0618
     18 H          36.9080   -5.9190  114.6350 H       1  UNL1        0.0336
     19 H          32.2660    0.1250  114.3750 H       1  UNL1        0.0721
     20 H          35.4490   -1.6580  113.3660 H       1  UNL1        0.1496
     21 H          32.6120   -2.0440  112.7700 H       1  UNL1        0.0629
     22 H          33.6310   -0.5530  115.2400 H       1  UNL1        0.0721
     23 H          34.0490    0.8910  109.8540 H       1  UNL1        0.0465
     24 H          30.9910    0.3020  112.4840 H       1  UNL1        0.0597
     25 H          30.6120    2.1080  111.0320 H       1  UNL1        0.0288
     26 H          31.9010    2.3230  108.9880 H       1  UNL1        0.0281
     27 H          33.3960    2.1770  110.8980 H       1  UNL1        0.0465
     28 H          29.8700    0.8990  109.9660 H       1  UNL1        0.0288
     29 H          31.9290    0.5630  108.7610 H       1  UNL1        0.0281
     30 H          26.7590   -3.5940  115.9450 H       1  UNL1        0.0252
     31 H          27.4130   -2.4980  113.8010 H       1  UNL1        0.1495
     32 H          27.6240   -0.6570  116.0000 H       1  UNL1        0.0592
     33 H          25.7290   -2.1680  115.9090 H       1  UNL1        0.0252
     34 H          26.6630   -2.5490  117.3690 H       1  UNL1        0.0252
     35 H          38.9780   -0.6040  124.4220 H       1  UNL1        0.0272
     36 H          40.5380    0.1900  124.1400 H       1  UNL1        0.0272
     37 H          40.4860   -1.4620  124.7870 H       1  UNL1        0.0272
     38 H          26.3840   -0.4200  111.9650 H       1  UNL1        0.0252
     39 H          28.7300    0.1730  111.7290 H       1  UNL1        0.0594
     40 H          26.7460   -2.1330  111.7600 H       1  UNL1        0.0252
     41 H          27.0590   -1.0100  110.4340 H       1  UNL1        0.0252
     42 H          31.2560   -4.7980  114.2870 H       1  UNL1        0.0314
     43 H          31.1510   -3.2100  117.7870 H       1  UNL1        0.0616
     44 H          31.0540   -5.4970  117.2570 H       1  UNL1        0.0292
     45 H          29.0550   -3.9760  114.3390 H       1  UNL1        0.0467
     46 H          29.7960   -7.0500  115.7670 H       1  UNL1        0.0233
     47 H          29.7950   -6.7810  114.0170 H       1  UNL1        0.0233
     48 H          32.5260   -5.1400  116.3390 H       1  UNL1        0.0292
     49 H          28.6510   -4.8240  115.8470 H       1  UNL1        0.0467
     50 H          31.2990   -7.2180  114.8450 H       1  UNL1        0.0233
     51 C          37.1800   -3.5480  116.3350 C.2     1  UNL1        0.2375
     52 C          37.0170   -3.0430  117.7210 C.2     1  UNL1        0.0001
     53 C          38.0950   -2.8380  118.4910 C.2     1  UNL1       -0.0569
     54 C          38.0060   -2.3260  119.8410 C.2     1  UNL1       -0.0616
     55 C          39.0860   -2.0910  120.6010 C.2     1  UNL1       -0.0621
     56 C          38.9970   -1.5670  121.9460 C.2     1  UNL1       -0.0659
     57 C          40.0760   -1.3130  122.7010 C.2     1  UNL1       -0.0871
     58 C          40.0080   -0.7670  124.0900 C.3     1  UNL1       -0.0465
     59 O          38.2640   -3.8460  115.8520 O.2     1  UNL1       -0.2708
     60 N          35.9940   -3.6270  115.6590 N.am    1  UNL1       -0.3002
     61 C          35.9290   -4.0150  114.2470 C.3     1  UNL1        0.1036
     62 C          34.5640   -3.4960  113.7680 C.2     1  UNL1        0.2344
     63 O          33.5260   -4.1480  113.8500 O.2     1  UNL1       -0.2738
     64 C          36.0520   -5.5340  114.0660 C.3     1  UNL1       -0.0006
     65 C          36.2360   -5.9180  112.6150 C.ar    1  UNL1       -0.0451
     66 C          35.1370   -6.2850  111.8280 C.ar    1  UNL1       -0.0585
     67 C          37.5080   -5.8710  112.0290 C.ar    1  UNL1       -0.0585
     68 C          35.3070   -6.6000  110.4790 C.ar    1  UNL1       -0.0615
     69 C          37.6770   -6.1890  110.6810 C.ar    1  UNL1       -0.0615
     70 C          36.5770   -6.5530  109.9060 C.ar    1  UNL1       -0.0617
     71 N          34.5680   -2.1600  113.4480 N.am    1  UNL1       -0.2997
     72 C          33.3480   -1.3800  113.2270 C.3     1  UNL1        0.1340
     73 C          33.7290   -0.2470  112.2610 C.2     1  UNL1        0.2399
     74 O          34.8890    0.1850  112.2520 O.2     1  UNL1       -0.2734
     75 C          32.8190   -0.8040  114.5450 C.3     1  UNL1        0.1193
     76 O          31.8770   -1.7150  115.1450 O.3     1  UNL1       -0.4610
     77 N          32.7740    0.2710  111.4140 N.am    1  UNL1       -0.2883
     78 C          31.3090    0.1030  111.4630 C.3     1  UNL1        0.1025
     79 C          30.8200   -1.3030  111.0390 C.2     1  UNL1        0.2365
     80 O          31.5430   -2.0270  110.3480 O.2     1  UNL1       -0.2735
     81 C          30.7900    1.1720  110.4890 C.3     1  UNL1       -0.0243
     82 C          31.9410    1.3630  109.5100 C.3     1  UNL1       -0.0350
     83 C          33.1620    1.2310  110.3970 C.3     1  UNL1        0.0156
     84 N          29.5500   -1.7290  111.4470 N.am    1  UNL1       -0.2917
     85 C          29.2150   -3.1240  111.1970 C.3     1  UNL1        0.0040
     86 C          28.5120   -0.8530  112.0400 C.3     1  UNL1        0.0991
     87 C          27.0970   -1.1250  111.5230 C.3     1  UNL1       -0.0379
     88 C          28.5830   -0.7920  113.5830 C.2     1  UNL1        0.2339
     89 O          29.2710    0.0600  114.1440 O.2     1  UNL1       -0.2738
     90 N          27.9090   -1.7650  114.2860 N.am    1  UNL1       -0.3027
     91 C          27.8380   -1.7050  115.7470 C.3     1  UNL1        0.0968
     92 C          29.1610   -2.0500  116.4710 C.2     1  UNL1        0.2363
     93 O          29.5200   -1.3710  117.4400 O.2     1  UNL1       -0.2736
     94 C          26.6870   -2.5540  116.2740 C.3     1  UNL1       -0.0381
     95 C          32.3240   -2.5290  116.1420 C.2     1  UNL1        0.3279
     96 N          29.8710   -3.1770  116.1190 N.am    1  UNL1       -0.2862
     97 O          33.4850   -2.5780  116.5440 O.2     1  UNL1       -0.2487
     98 C          31.1950   -3.4140  116.7110 C.3     1  UNL1        0.1233
     99 C          31.4640   -4.8940  116.4370 C.3     1  UNL1       -0.0199
    100 C          29.4440   -4.3000  115.3040 C.3     1  UNL1        0.0182
    101 C          30.3750   -6.6380  114.9340 C.3     1  UNL1       -0.0609
    102 C          30.6870   -5.1670  115.1460 C.3     1  UNL1       -0.0258
@<TRIPOS>BOND
     1    29    82    1
     2    10    70    1
     3    26    82    1
     4    82    83    1
     5    82    81    1
     6    23    83    1
     7    16    68    1
     8    70    68   ar
     9    70    69   ar
    10    28    81    1
    11    17    69    1
    12     8    85    1
    13    80    79    2
    14    83    27    1
    15    83    77    1
    16    41    87    1
    17    68    66   ar
    18    81    25    1
    19    81    78    1
    20    69    67   ar
    21     7    85    1
    22    79    84   am
    23    79    78    1
    24    85    84    1
    25    85     9    1
    26    77    78    1
    27    77    73   am
    28    84    86    1
    29    78    24    1
    30    87    40    1
    31    87    38    1
    32    87    86    1
    33    39    86    1
    34    66    14    1
    35    66    65   ar
    36    67    65   ar
    37    67    15    1
    38    86    88    1
    39    74    73    2
    40    73    72    1
    41    65    64    1
    42    21    72    1
    43    72    71    1
    44    72    75    1
    45    20    71    1
    46    71    62   am
    47    88    89    2
    48    88    90   am
    49    12    61    1
    50    62    63    2
    51    62    61    1
    52    31    90    1
    53    47   101    1
    54    64    61    1
    55    64    13    1
    56    64    18    1
    57    61    60    1
    58    90    91    1
    59    42   102    1
    60    45   100    1
    61    19    75    1
    62    75    76    1
    63    75    22    1
    64    50   101    1
    65   101   102    1
    66   101    46    1
    67    76    95    1
    68   102   100    1
    69   102    99    1
    70   100    49    1
    71   100    96    1
    72    60    11    1
    73    60    51   am
    74    91    32    1
    75    91    94    1
    76    91    92    1
    77    59    51    2
    78    33    94    1
    79    30    94    1
    80    96    92   am
    81    96    98    1
    82    95    97    2
    83    95    98    1
    84    94    34    1
    85    51    52    1
    86    48    99    1
    87    99    98    1
    88    99    44    1
    89    92    93    2
    90    98    43    1
    91    52     1    1
    92    52    53    2
    93     2    53    1
    94    53    54    1
    95    54     3    1
    96    54    55    2
    97     4    55    1
    98    55    56    1
    99    56     5    1
   100    56    57    2
   101     6    57    1
   102    57    58    1
   103    58    36    1
   104    58    35    1
   105    58    37    1
