@<TRIPOS>MOLECULE
145.65324
 102 105 0 0 0
SMALL
GASTEIGER

@<TRIPOS>ATOM
      1 H          28.2130   -0.5440  126.6010 H       1  UNL1        0.0669
      2 H          27.5850    1.5530  128.7730 H       1  UNL1        0.0619
      3 H          27.4990   -1.5640  128.7690 H       1  UNL1        0.0618
      4 H          26.8460    0.5730  130.8820 H       1  UNL1        0.0617
      5 H          26.8000   -2.5420  130.9170 H       1  UNL1        0.0614
      6 H          26.1050   -0.3940  133.0040 H       1  UNL1        0.0569
      7 H          23.0630   -0.3010  120.7640 H       1  UNL1        0.0429
      8 H          22.3380    0.3130  122.2650 H       1  UNL1        0.0429
      9 H          23.3410   -1.1580  122.2910 H       1  UNL1        0.0429
     10 H          31.1070    7.6270  121.5580 H       1  UNL1        0.0618
     11 H          28.7680    0.4030  124.6340 H       1  UNL1        0.1498
     12 H          28.3700    3.1910  124.1760 H       1  UNL1        0.0598
     13 H          31.3300    2.3300  124.1040 H       1  UNL1        0.0336
     14 H          32.0780    3.4860  122.1230 H       1  UNL1        0.0620
     15 H          29.4620    5.5030  124.9070 H       1  UNL1        0.0620
     16 H          32.3020    5.5800  120.8340 H       1  UNL1        0.0618
     17 H          29.6970    7.5870  123.5980 H       1  UNL1        0.0618
     18 H          30.6560    3.2510  125.4280 H       1  UNL1        0.0336
     19 H          29.2320    0.6110  119.9680 H       1  UNL1        0.0721
     20 H          28.4920    3.7530  122.0370 H       1  UNL1        0.1496
     21 H          29.3820    3.0320  119.8560 H       1  UNL1        0.0629
     22 H          28.2350    1.2280  118.6360 H       1  UNL1        0.0721
     23 H          24.7340    4.4310  119.0890 H       1  UNL1        0.0465
     24 H          26.4070    2.4640  122.1640 H       1  UNL1        0.0597
     25 H          25.4760    4.5640  122.8900 H       1  UNL1        0.0288
     26 H          23.9520    5.7700  121.4820 H       1  UNL1        0.0281
     27 H          25.7420    5.6200  119.9450 H       1  UNL1        0.0465
     28 H          24.0420    3.5210  122.9930 H       1  UNL1        0.0288
     29 H          23.2280    4.2870  120.8580 H       1  UNL1        0.0281
     30 H          25.0590   -4.0780  123.2830 H       1  UNL1        0.0252
     31 H          25.3220   -1.5440  121.6280 H       1  UNL1        0.1495
     32 H          27.7620   -2.7470  122.7060 H       1  UNL1        0.0592
     33 H          26.1420   -3.3820  124.4930 H       1  UNL1        0.0252
     34 H          26.6440   -4.8110  123.5760 H       1  UNL1        0.0252
     35 H          26.1070   -3.5000  133.0330 H       1  UNL1        0.0272
     36 H          24.8830   -2.4820  133.8140 H       1  UNL1        0.0272
     37 H          26.5580   -2.4660  134.4000 H       1  UNL1        0.0272
     38 H          24.8240    0.2490  125.5020 H       1  UNL1        0.0252
     39 H          25.7370    1.3440  123.5730 H       1  UNL1        0.0594
     40 H          23.6750   -0.6710  124.5370 H       1  UNL1        0.0252
     41 H          23.5140    1.0930  124.6590 H       1  UNL1        0.0252
     42 H          27.1890   -2.2060  117.2850 H       1  UNL1        0.0314
     43 H          28.5490   -1.5750  120.8170 H       1  UNL1        0.0616
     44 H          29.7860   -2.3080  118.8930 H       1  UNL1        0.0292
     45 H          26.4500   -4.1560  118.4100 H       1  UNL1        0.0467
     46 H          29.6770   -3.9860  117.0360 H       1  UNL1        0.0233
     47 H          28.2330   -4.0650  116.0130 H       1  UNL1        0.0233
     48 H          29.0180   -0.8920  118.1580 H       1  UNL1        0.0292
     49 H          28.0970   -4.6620  118.8520 H       1  UNL1        0.0467
     50 H          29.2660   -2.6250  115.9820 H       1  UNL1        0.0233
     51 C          28.4090    1.6330  126.2710 C.2     1  UNL1        0.2375
     52 C          28.0970    0.4250  127.0700 C.2     1  UNL1        0.0001
     53 C          27.6880    0.5580  128.3400 C.2     1  UNL1       -0.0569
     54 C          27.3790   -0.5690  129.1920 C.2     1  UNL1       -0.0616
     55 C          26.9650   -0.4230  130.4600 C.2     1  UNL1       -0.0621
     56 C          26.6660   -1.5420  131.3240 C.2     1  UNL1       -0.0659
     57 C          26.2420   -1.3900  132.5880 C.2     1  UNL1       -0.0871
     58 C          25.9320   -2.5280  133.5050 C.3     1  UNL1       -0.0465
     59 O          28.3040    2.7730  126.7130 O.2     1  UNL1       -0.2708
     60 N          28.8150    1.3580  124.9930 N.am    1  UNL1       -0.3002
     61 C          29.1550    2.4300  124.0690 C.3     1  UNL1        0.1036
     62 C          29.1080    1.8870  122.6250 C.2     1  UNL1        0.2344
     63 O          29.4620    0.7490  122.3280 O.2     1  UNL1       -0.2738
     64 C          30.5360    3.0440  124.3570 C.3     1  UNL1       -0.0006
     65 C          30.7450    4.3390  123.6030 C.ar    1  UNL1       -0.0451
     66 C          31.5500    4.3770  122.4570 C.ar    1  UNL1       -0.0585
     67 C          30.0830    5.5070  124.0110 C.ar    1  UNL1       -0.0585
     68 C          31.6770    5.5570  121.7230 C.ar    1  UNL1       -0.0615
     69 C          30.2120    6.6850  123.2750 C.ar    1  UNL1       -0.0615
     70 C          31.0050    6.7080  122.1300 C.ar    1  UNL1       -0.0617
     71 N          28.6200    2.7970  121.7170 N.am    1  UNL1       -0.2997
     72 C          28.4590    2.6090  120.2750 C.3     1  UNL1        0.1340
     73 C          27.3160    3.4960  119.7310 C.2     1  UNL1        0.2399
     74 O          27.4790    4.0630  118.6450 O.2     1  UNL1       -0.2734
     75 C          28.3340    1.1850  119.7280 C.3     1  UNL1        0.1193
     76 O          27.1690    0.5400  120.2520 O.3     1  UNL1       -0.4610
     77 N          26.1310    3.6260  120.4270 N.am    1  UNL1       -0.2883
     78 C          25.5990    2.8570  121.5650 C.3     1  UNL1        0.1025
     79 C          24.6240    1.7040  121.1780 C.2     1  UNL1        0.2365
     80 O          23.9720    1.7810  120.1310 O.2     1  UNL1       -0.2735
     81 C          24.7970    3.9240  122.3120 C.3     1  UNL1       -0.0243
     82 C          24.1720    4.7420  121.1800 C.3     1  UNL1       -0.0350
     83 C          25.1960    4.6760  120.0510 C.3     1  UNL1        0.0156
     84 N          24.3780    0.6820  122.1080 N.am    1  UNL1       -0.2917
     85 C          23.2210   -0.1720  121.8380 C.3     1  UNL1        0.0040
     86 C          25.1410    0.4550  123.3610 C.3     1  UNL1        0.0991
     87 C          24.2320    0.2700  124.5800 C.3     1  UNL1       -0.0379
     88 C          26.1780   -0.7040  123.3210 C.2     1  UNL1        0.2339
     89 O          27.0520   -0.8000  124.1870 O.2     1  UNL1       -0.2738
     90 N          25.9890   -1.6900  122.3820 N.am    1  UNL1       -0.3027
     91 C          26.7230   -2.9570  122.4290 C.3     1  UNL1        0.0968
     92 C          26.7460   -3.7040  121.0700 C.2     1  UNL1        0.2363
     93 O          26.3060   -4.8530  120.9670 O.2     1  UNL1       -0.2736
     94 C          26.1100   -3.8570  123.5070 C.3     1  UNL1       -0.0381
     95 C          26.8550   -0.6990  119.7970 C.2     1  UNL1        0.3279
     96 N          27.3520   -3.0950  119.9890 N.am    1  UNL1       -0.2862
     97 O          25.6960   -0.9770  119.5010 O.2     1  UNL1       -0.2487
     98 C          27.9650   -1.7570  119.9100 C.3     1  UNL1        0.1233
     99 C          28.8200   -1.8480  118.6460 C.3     1  UNL1       -0.0199
    100 C          27.4390   -3.7960  118.7160 C.3     1  UNL1        0.0182
    101 C          28.8450   -3.4000  116.6310 C.3     1  UNL1       -0.0609
    102 C          28.0110   -2.7770  117.7360 C.3     1  UNL1       -0.0258
@<TRIPOS>BOND
     1    50   101    1
     2    47   101    1
     3   101    46    1
     4   101   102    1
     5    42   102    1
     6   102    99    1
     7   102   100    1
     8    48    99    1
     9    45   100    1
    10    22    75    1
    11    74    73    2
    12    99    44    1
    13    99    98    1
    14   100    49    1
    15   100    96    1
    16    23    83    1
    17    97    95    2
    18    75    19    1
    19    75    76    1
    20    75    72    1
    21    73    72    1
    22    73    77   am
    23    95    98    1
    24    95    76    1
    25    21    72    1
    26    98    96    1
    27    98    43    1
    28    27    83    1
    29    96    92   am
    30    83    77    1
    31    83    82    1
    32    80    79    2
    33    72    71    1
    34    77    78    1
    35     7    85    1
    36    16    68    1
    37    29    82    1
    38    93    92    2
    39    92    91    1
    40    79    78    1
    41    79    84   am
    42    82    26    1
    43    82    81    1
    44    10    70    1
    45    78    24    1
    46    78    81    1
    47    31    90    1
    48    71    20    1
    49    71    62   am
    50    68    70   ar
    51    68    66   ar
    52    85    84    1
    53    85     8    1
    54    85     9    1
    55    84    86    1
    56    14    66    1
    57    70    69   ar
    58    81    25    1
    59    81    28    1
    60    63    62    2
    61    90    91    1
    62    90    88   am
    63    91    32    1
    64    91    94    1
    65    66    65   ar
    66    62    61    1
    67    69    17    1
    68    69    67   ar
    69    30    94    1
    70    88    86    1
    71    88    89    2
    72    86    39    1
    73    86    87    1
    74    94    34    1
    75    94    33    1
    76    65    67   ar
    77    65    64    1
    78    67    15    1
    79    61    12    1
    80    61    64    1
    81    61    60    1
    82    13    64    1
    83    64    18    1
    84    40    87    1
    85    87    41    1
    86    87    38    1
    87    11    60    1
    88    60    51   am
    89    51    59    2
    90    51    52    1
    91     1    52    1
    92    52    53    2
    93    53     2    1
    94    53    54    1
    95     3    54    1
    96    54    55    2
    97    55     4    1
    98    55    56    1
    99     5    56    1
   100    56    57    2
   101    57     6    1
   102    57    58    1
   103    35    58    1
   104    58    36    1
   105    58    37    1
