@<TRIPOS>MOLECULE
145.86097
 102 105 0 0 0
SMALL
GASTEIGER

@<TRIPOS>ATOM
      1 H          14.9980   -8.0900  123.5950 H       1  UNL1        0.0669
      2 H          12.0990   -8.8110  122.8380 H       1  UNL1        0.0619
      3 H          13.8900   -9.4920  125.3010 H       1  UNL1        0.0618
      4 H          11.0340  -10.2970  124.4960 H       1  UNL1        0.0617
      5 H          12.8240  -10.9300  126.9680 H       1  UNL1        0.0614
      6 H           9.9880  -11.7850  126.1490 H       1  UNL1        0.0569
      7 H          21.3130   -3.2320  117.1790 H       1  UNL1        0.0429
      8 H          23.0700   -3.1700  117.3770 H       1  UNL1        0.0429
      9 H          21.9990   -3.0770  118.8030 H       1  UNL1        0.0429
     10 H          15.0050   -2.5550  115.2470 H       1  UNL1        0.0618
     11 H          16.0880   -7.0800  121.9670 H       1  UNL1        0.1498
     12 H          14.9330   -6.7240  119.3310 H       1  UNL1        0.0598
     13 H          15.8130   -4.1710  120.8360 H       1  UNL1        0.0336
     14 H          17.1280   -3.3750  118.8860 H       1  UNL1        0.0620
     15 H          13.0410   -4.6860  118.4150 H       1  UNL1        0.0620
     16 H          17.0660   -2.4010  116.6200 H       1  UNL1        0.0618
     17 H          12.9960   -3.6990  116.1500 H       1  UNL1        0.0618
     18 H          14.1350   -4.6140  120.6540 H       1  UNL1        0.0336
     19 H          19.7350   -9.5350  119.7390 H       1  UNL1        0.0721
     20 H          16.6340   -7.6090  118.2260 H       1  UNL1        0.1496
     21 H          19.3980   -7.1720  119.2160 H       1  UNL1        0.0629
     22 H          18.2970  -10.0160  118.8970 H       1  UNL1        0.0721
     23 H          19.8040   -7.9710  114.7310 H       1  UNL1        0.0465
     24 H          21.4350   -7.5910  118.4630 H       1  UNL1        0.0597
     25 H          22.8170   -8.8600  116.9520 H       1  UNL1        0.0288
     26 H          22.4850   -8.7010  114.5550 H       1  UNL1        0.0281
     27 H          20.4000   -9.5060  115.4050 H       1  UNL1        0.0465
     28 H          23.4300   -7.2350  116.5830 H       1  UNL1        0.0288
     29 H          21.9620   -7.0150  114.6810 H       1  UNL1        0.0281
     30 H          20.8570   -5.3730  123.0450 H       1  UNL1        0.0252
     31 H          23.8920   -6.9220  120.9910 H       1  UNL1        0.1495
     32 H          23.1760   -7.3350  123.1030 H       1  UNL1        0.0592
     33 H          22.5110   -4.7650  123.2880 H       1  UNL1        0.0252
     34 H          21.8280   -5.9280  124.4080 H       1  UNL1        0.0252
     35 H          11.7910  -12.3750  128.6100 H       1  UNL1        0.0272
     36 H          10.7170  -13.5530  127.8360 H       1  UNL1        0.0272
     37 H          10.0350  -12.1420  128.6680 H       1  UNL1        0.0272
     38 H          25.2190   -5.2880  119.6990 H       1  UNL1        0.0252
     39 H          23.3820   -6.5590  118.7650 H       1  UNL1        0.0594
     40 H          24.4140   -3.7540  119.3820 H       1  UNL1        0.0252
     41 H          24.9710   -4.7570  118.0270 H       1  UNL1        0.0252
     42 H          18.5110   -8.8670  124.9950 H       1  UNL1        0.0314
     43 H          20.0650  -10.1150  121.6650 H       1  UNL1        0.0616
     44 H          20.1420  -11.1200  123.7580 H       1  UNL1        0.0292
     45 H          20.1680   -7.3270  124.6160 H       1  UNL1        0.0467
     46 H          20.8420  -10.5470  126.0600 H       1  UNL1        0.0233
     47 H          19.9660   -9.2940  126.9540 H       1  UNL1        0.0233
     48 H          18.3910  -10.8610  123.6690 H       1  UNL1        0.0292
     49 H          21.5060   -8.4970  124.7640 H       1  UNL1        0.0467
     50 H          19.1290  -10.7740  126.4520 H       1  UNL1        0.0233
     51 C          14.0490   -7.3930  121.7290 C.2     1  UNL1        0.2375
     52 C          14.0790   -8.1200  123.0220 C.2     1  UNL1        0.0001
     53 C          13.0030   -8.7980  123.4460 C.2     1  UNL1       -0.0569
     54 C          12.9890   -9.5340  124.6910 C.2     1  UNL1       -0.0616
     55 C          11.9340  -10.2510  125.1060 C.2     1  UNL1       -0.0621
     56 C          11.9310  -10.9870  126.3500 C.2     1  UNL1       -0.0659
     57 C          10.8860  -11.7210  126.7600 C.2     1  UNL1       -0.0871
     58 C          10.8630  -12.4880  128.0420 C.3     1  UNL1       -0.0465
     59 O          13.0350   -7.2690  121.0540 O.2     1  UNL1       -0.2708
     60 N          15.2720   -6.8990  121.3780 N.am    1  UNL1       -0.3002
     61 C          15.5080   -6.2080  120.1090 C.3     1  UNL1        0.1036
     62 C          17.0150   -6.3750  119.8650 C.2     1  UNL1        0.2344
     63 O          17.8630   -5.8950  120.6180 O.2     1  UNL1       -0.2738
     64 C          15.1230   -4.7280  120.1880 C.3     1  UNL1       -0.0006
     65 C          15.0830   -4.0880  118.8200 C.ar    1  UNL1       -0.0451
     66 C          16.2130   -3.4430  118.3000 C.ar    1  UNL1       -0.0585
     67 C          13.9260   -4.1780  118.0340 C.ar    1  UNL1       -0.0585
     68 C          16.1820   -2.8920  117.0190 C.ar    1  UNL1       -0.0615
     69 C          13.8970   -3.6240  116.7530 C.ar    1  UNL1       -0.0615
     70 C          15.0250   -2.9810  116.2460 C.ar    1  UNL1       -0.0617
     71 N          17.3390   -7.2740  118.8770 N.am    1  UNL1       -0.2997
     72 C          18.6730   -7.8680  118.7910 C.3     1  UNL1        0.1340
     73 C          18.9450   -8.1680  117.3090 C.2     1  UNL1        0.2399
     74 O          18.0470   -8.6660  116.6170 O.2     1  UNL1       -0.2734
     75 C          18.7090   -9.2260  119.5370 C.3     1  UNL1        0.1193
     76 O          17.8680   -9.2460  120.7180 O.3     1  UNL1       -0.4610
     77 N          20.2080   -7.9810  116.7970 N.am    1  UNL1       -0.2883
     78 C          21.3690   -7.3170  117.4120 C.3     1  UNL1        0.1025
     79 C          21.3050   -5.7680  117.2720 C.2     1  UNL1        0.2365
     80 O          20.4920   -5.2550  116.4960 O.2     1  UNL1       -0.2735
     81 C          22.5370   -7.8660  116.5840 C.3     1  UNL1       -0.0243
     82 C          21.9430   -7.9890  115.1840 C.3     1  UNL1       -0.0350
     83 C          20.5070   -8.4160  115.4430 C.3     1  UNL1        0.0156
     84 N          22.2370   -4.9900  117.9680 N.am    1  UNL1       -0.2917
     85 C          22.1410   -3.5390  117.8220 C.3     1  UNL1        0.0040
     86 C          23.1740   -5.5100  118.9920 C.3     1  UNL1        0.0991
     87 C          24.5180   -4.7840  119.0240 C.3     1  UNL1       -0.0379
     88 C          22.5230   -5.4930  120.3940 C.2     1  UNL1        0.2339
     89 O          21.5470   -4.8040  120.6690 O.2     1  UNL1       -0.2738
     90 N          23.1260   -6.3430  121.3070 N.am    1  UNL1       -0.3027
     91 C          22.4220   -6.7980  122.5150 C.3     1  UNL1        0.0968
     92 C          21.3920   -7.8580  122.0250 C.2     1  UNL1        0.2363
     93 O          21.4050   -8.2370  120.8440 O.2     1  UNL1       -0.2736
     94 C          21.8700   -5.6520  123.3510 C.3     1  UNL1       -0.0381
     95 C          18.3010   -8.8640  121.9420 C.2     1  UNL1        0.3279
     96 N          20.5530   -8.4800  122.9140 N.am    1  UNL1       -0.2862
     97 O          17.5770   -8.1780  122.6660 O.2     1  UNL1       -0.2487
     98 C          19.6110   -9.4950  122.4400 C.3     1  UNL1        0.1233
     99 C          19.3610  -10.3540  123.6820 C.3     1  UNL1       -0.0199
    100 C          20.5010   -8.3360  124.3600 C.3     1  UNL1        0.0182
    101 C          19.8780  -10.0340  126.1520 C.3     1  UNL1       -0.0609
    102 C          19.4780   -9.3650  124.8470 C.3     1  UNL1       -0.0258
@<TRIPOS>BOND
     1    26    82    1
     2    29    82    1
     3    23    83    1
     4    82    83    1
     5    82    81    1
     6    10    70    1
     7    27    83    1
     8    83    77    1
     9    17    69    1
    10    70    69   ar
    11    70    68   ar
    12    80    79    2
    13    28    81    1
    14    81    25    1
    15    81    78    1
    16    74    73    2
    17    16    68    1
    18    69    67   ar
    19    77    73   am
    20    77    78    1
    21    68    66   ar
    22     7    85    1
    23    79    78    1
    24    79    84   am
    25    73    72    1
    26     8    85    1
    27    78    24    1
    28    85    84    1
    29    85     9    1
    30    84    86    1
    31    41    87    1
    32    67    15    1
    33    67    65   ar
    34    20    71    1
    35    66    65   ar
    36    66    14    1
    37    39    86    1
    38    72    71    1
    39    72    21    1
    40    72    75    1
    41    65    64    1
    42    71    62   am
    43    22    75    1
    44    86    87    1
    45    86    88    1
    46    87    40    1
    47    87    38    1
    48    12    61    1
    49    75    19    1
    50    75    76    1
    51    62    61    1
    52    62    63    2
    53    61    64    1
    54    61    60    1
    55    64    18    1
    56    64    13    1
    57    88    89    2
    58    88    90   am
    59    76    95    1
    60    93    92    2
    61    31    90    1
    62    59    51    2
    63    90    91    1
    64    60    51   am
    65    60    11    1
    66    43    98    1
    67    51    52    1
    68    95    98    1
    69    95    97    2
    70    92    91    1
    71    92    96   am
    72    98    96    1
    73    98    99    1
    74    91    32    1
    75    91    94    1
    76     2    53    1
    77    96   100    1
    78    52    53    2
    79    52     1    1
    80    30    94    1
    81    33    94    1
    82    94    34    1
    83    53    54    1
    84    48    99    1
    85    99    44    1
    86    99   102    1
    87   100    45    1
    88   100    49    1
    89   100   102    1
    90     4    55    1
    91    54    55    2
    92    54     3    1
    93   102    42    1
    94   102   101    1
    95    55    56    1
    96    46   101    1
    97     6    57    1
    98   101    50    1
    99   101    47    1
   100    56    57    2
   101    56     5    1
   102    57    58    1
   103    36    58    1
   104    58    35    1
   105    58    37    1
