@<TRIPOS>MOLECULE
127.80329
 102 105 0 0 0
SMALL
GASTEIGER

@<TRIPOS>ATOM
      1 H          37.0240    7.1270  123.3120 H       1  UNL1        0.0669
      2 H          36.0240    6.8930  126.2180 H       1  UNL1        0.0619
      3 H          38.8790    7.0270  124.9660 H       1  UNL1        0.0618
      4 H          37.8490    6.7090  127.8460 H       1  UNL1        0.0617
      5 H          40.7010    6.8480  126.5970 H       1  UNL1        0.0614
      6 H          39.6720    6.4950  129.4720 H       1  UNL1        0.0569
      7 H          27.2910   -1.3460  120.0400 H       1  UNL1        0.0429
      8 H          25.6520   -0.7190  119.8380 H       1  UNL1        0.0429
      9 H          26.4000   -0.7740  121.4590 H       1  UNL1        0.0429
     10 H          27.7040    7.0130  119.4610 H       1  UNL1        0.0618
     11 H          35.3670    6.7870  121.8420 H       1  UNL1        0.1498
     12 H          32.5900    6.4980  122.8480 H       1  UNL1        0.0598
     13 H          33.4250    8.0270  120.3040 H       1  UNL1        0.0336
     14 H          31.8950    7.3580  118.6060 H       1  UNL1        0.0620
     15 H          30.4380    7.9440  122.6310 H       1  UNL1        0.0620
     16 H          29.5850    6.9510  117.8420 H       1  UNL1        0.0618
     17 H          28.1400    7.5070  121.8480 H       1  UNL1        0.0618
     18 H          32.8070    8.7900  121.7510 H       1  UNL1        0.0336
     19 H          33.9420    2.4180  121.3110 H       1  UNL1        0.0721
     20 H          31.4130    4.8990  121.7280 H       1  UNL1        0.1496
     21 H          32.6020    3.4280  119.5210 H       1  UNL1        0.0629
     22 H          32.7090    1.2540  120.8110 H       1  UNL1        0.0721
     23 H          31.6910    1.8060  118.0120 H       1  UNL1        0.0465
     24 H          28.1730    3.1500  119.5770 H       1  UNL1        0.0597
     25 H          28.3310    3.5450  117.2620 H       1  UNL1        0.0288
     26 H          29.9690    2.3790  115.9200 H       1  UNL1        0.0281
     27 H          31.2030    3.4830  117.6550 H       1  UNL1        0.0465
     28 H          27.6170    1.9230  117.1600 H       1  UNL1        0.0288
     29 H          29.8010    0.9050  116.8800 H       1  UNL1        0.0281
     30 H          26.7510    1.8060  125.3900 H       1  UNL1        0.0252
     31 H          27.7220    0.5600  122.4130 H       1  UNL1        0.1495
     32 H          29.2210    2.4370  123.6870 H       1  UNL1        0.0592
     33 H          27.3020    3.4090  124.8850 H       1  UNL1        0.0252
     34 H          28.2550    2.4740  126.0400 H       1  UNL1        0.0252
     35 H          42.5020    6.6360  128.1990 H       1  UNL1        0.0272
     36 H          42.0450    5.5760  129.5440 H       1  UNL1        0.0272
     37 H          42.0580    7.3360  129.7650 H       1  UNL1        0.0272
     38 H          24.3120    2.4830  121.4440 H       1  UNL1        0.0252
     39 H          26.2970    2.7190  120.0490 H       1  UNL1        0.0594
     40 H          24.7300    0.8270  121.8690 H       1  UNL1        0.0252
     41 H          24.3070    1.2330  120.1920 H       1  UNL1        0.0252
     42 H          32.8480   -1.1100  124.9310 H       1  UNL1        0.0314
     43 H          31.0390    2.3060  124.7190 H       1  UNL1        0.0616
     44 H          32.2390    1.3900  126.5700 H       1  UNL1        0.0292
     45 H          30.6020   -1.7430  124.9490 H       1  UNL1        0.0467
     46 H          32.3000   -0.6970  127.9210 H       1  UNL1        0.0233
     47 H          32.6840   -2.2360  127.1360 H       1  UNL1        0.0233
     48 H          33.4670    1.1850  125.3040 H       1  UNL1        0.0292
     49 H          30.2630   -0.9580  126.5060 H       1  UNL1        0.0467
     50 H          33.8910   -0.9390  127.1830 H       1  UNL1        0.0233
     51 C          34.8780    7.0390  123.8430 C.2     1  UNL1        0.2375
     52 C          36.3310    7.0590  124.1410 C.2     1  UNL1        0.0001
     53 C          36.7530    6.9680  125.4110 C.2     1  UNL1       -0.0569
     54 C          38.1530    6.9410  125.7720 C.2     1  UNL1       -0.0616
     55 C          38.5730    6.8010  127.0390 C.2     1  UNL1       -0.0621
     56 C          39.9710    6.7530  127.3990 C.2     1  UNL1       -0.0659
     57 C          40.3920    6.5930  128.6630 C.2     1  UNL1       -0.0871
     58 C          41.8320    6.5330  129.0580 C.3     1  UNL1       -0.0465
     59 O          34.0180    7.0890  124.7120 O.2     1  UNL1       -0.2708
     60 N          34.6130    6.9230  122.5050 N.am    1  UNL1       -0.3002
     61 C          33.2620    6.6840  122.0020 C.3     1  UNL1        0.1036
     62 C          33.3480    5.4020  121.1550 C.2     1  UNL1        0.2344
     63 O          34.3420    5.1140  120.4880 O.2     1  UNL1       -0.2738
     64 C          32.7590    7.8640  121.1610 C.3     1  UNL1       -0.0006
     65 C          31.3390    7.6780  120.6760 C.ar    1  UNL1       -0.0451
     66 C          31.0810    7.4010  119.3260 C.ar    1  UNL1       -0.0585
     67 C          30.2670    7.7270  121.5780 C.ar    1  UNL1       -0.0585
     68 C          29.7770    7.1650  118.8900 C.ar    1  UNL1       -0.0615
     69 C          28.9650    7.4830  121.1400 C.ar    1  UNL1       -0.0615
     70 C          28.7200    7.2010  119.7970 C.ar    1  UNL1       -0.0617
     71 N          32.2260    4.6160  121.1850 N.am    1  UNL1       -0.2997
     72 C          32.1430    3.3240  120.5070 C.3     1  UNL1        0.1340
     73 C          30.6510    2.9840  120.4020 C.2     1  UNL1        0.2399
     74 O          29.9200    3.1100  121.3890 O.2     1  UNL1       -0.2734
     75 C          32.8640    2.2230  121.2970 C.3     1  UNL1        0.1193
     76 O          32.4340    2.2320  122.6790 O.3     1  UNL1       -0.4610
     77 N          30.1380    2.5880  119.1920 N.am    1  UNL1       -0.2883
     78 C          28.6990    2.3630  119.0380 C.3     1  UNL1        0.1025
     79 C          28.2760    0.9410  119.5060 C.2     1  UNL1        0.2365
     80 O          28.9710   -0.0330  119.1920 O.2     1  UNL1       -0.2735
     81 C          28.4770    2.4910  117.5280 C.3     1  UNL1       -0.0243
     82 C          29.7940    1.9990  116.9300 C.3     1  UNL1       -0.0350
     83 C          30.8380    2.4860  117.9240 C.3     1  UNL1        0.0156
     84 N          27.0680    0.7720  120.1930 N.am    1  UNL1       -0.2917
     85 C          26.5840   -0.5940  120.3970 C.3     1  UNL1        0.0040
     86 C          26.2950    1.9020  120.7760 C.3     1  UNL1        0.0991
     87 C          24.8300    1.5860  121.0860 C.3     1  UNL1       -0.0379
     88 C          26.9630    2.4350  122.0700 C.2     1  UNL1        0.2339
     89 O          26.7810    3.5900  122.4510 O.2     1  UNL1       -0.2738
     90 N          27.6160    1.4830  122.8160 N.am    1  UNL1       -0.3027
     91 C          28.4240    1.7620  123.9970 C.3     1  UNL1        0.0968
     92 C          28.9780    0.4140  124.5080 C.2     1  UNL1        0.2363
     93 O          28.2260   -0.5620  124.6170 O.2     1  UNL1       -0.2736
     94 C          27.6370    2.3990  125.1390 C.3     1  UNL1       -0.0381
     95 C          31.9010    1.0740  123.1570 C.2     1  UNL1        0.3279
     96 N          30.2990    0.3320  124.8830 N.am    1  UNL1       -0.2862
     97 O          31.8820    0.0120  122.5480 O.2     1  UNL1       -0.2487
     98 C          31.3820    1.2760  124.5930 C.3     1  UNL1        0.1233
     99 C          32.4550    0.9000  125.6120 C.3     1  UNL1       -0.0199
    100 C          30.8020   -0.8540  125.5580 C.3     1  UNL1        0.0182
    101 C          32.8230   -1.1520  127.0730 C.3     1  UNL1       -0.0609
    102 C          32.3020   -0.6210  125.7480 C.3     1  UNL1       -0.0258
@<TRIPOS>BOND
     1    26    82    1
     2    29    82    1
     3    82    81    1
     4    82    83    1
     5    28    81    1
     6    25    81    1
     7    81    78    1
     8    27    83    1
     9    16    68    1
    10    83    23    1
    11    83    77    1
    12    14    66    1
    13    68    66   ar
    14    68    70   ar
    15    78    77    1
    16    78    79    1
    17    78    24    1
    18    77    73   am
    19    80    79    2
    20    66    65   ar
    21    10    70    1
    22    79    84   am
    23    21    72    1
    24    70    69   ar
    25     8    85    1
    26     7    85    1
    27    39    86    1
    28    41    87    1
    29    84    85    1
    30    84    86    1
    31    13    64    1
    32    85     9    1
    33    73    72    1
    34    73    74    2
    35    63    62    2
    36    72    71    1
    37    72    75    1
    38    65    64    1
    39    65    67   ar
    40    86    87    1
    41    86    88    1
    42    22    75    1
    43    87    38    1
    44    87    40    1
    45    69    67   ar
    46    69    17    1
    47    62    71   am
    48    62    61    1
    49    64    18    1
    50    64    61    1
    51    71    20    1
    52    75    19    1
    53    75    76    1
    54    67    15    1
    55    11    60    1
    56    61    60    1
    57    61    12    1
    58    88    89    2
    59    88    90   am
    60    31    90    1
    61    60    51   am
    62    97    95    2
    63    76    95    1
    64    90    91    1
    65    95    98    1
    66     1    52    1
    67    32    91    1
    68    51    52    1
    69    51    59    2
    70    91    92    1
    71    91    94    1
    72    52    53    2
    73    92    93    2
    74    92    96   am
    75    98    43    1
    76    98    96    1
    77    98    99    1
    78    96   100    1
    79    33    94    1
    80    42   102    1
    81    45   100    1
    82     3    54    1
    83    94    30    1
    84    94    34    1
    85    48    99    1
    86    53    54    1
    87    53     2    1
    88   100   102    1
    89   100    49    1
    90    99   102    1
    91    99    44    1
    92   102   101    1
    93    54    55    2
    94     5    56    1
    95    55    56    1
    96    55     4    1
    97   101    47    1
    98   101    50    1
    99   101    46    1
   100    56    57    2
   101    35    58    1
   102    57    58    1
   103    57     6    1
   104    58    36    1
   105    58    37    1
