@<TRIPOS>MOLECULE
162.34390
 102 105 0 0 0
SMALL
GASTEIGER

@<TRIPOS>ATOM
      1 H          32.9390    4.4670  120.7530 H       1  UNL1        0.0669
      2 H          34.2880    1.8000  120.0080 H       1  UNL1        0.0619
      3 H          34.7000    3.7920  122.3710 H       1  UNL1        0.0618
      4 H          36.0880    1.1730  121.5520 H       1  UNL1        0.0617
      5 H          36.4680    3.1430  123.9370 H       1  UNL1        0.0614
      6 H          37.8810    0.5430  123.1060 H       1  UNL1        0.0569
      7 H          24.3950    0.0660  124.1830 H       1  UNL1        0.0429
      8 H          25.9430    0.7190  124.7320 H       1  UNL1        0.0429
      9 H          25.8380   -0.9500  124.1050 H       1  UNL1        0.0429
     10 H          35.6400    8.3310  116.2040 H       1  UNL1        0.0618
     11 H          31.7690    5.2660  119.0120 H       1  UNL1        0.1498
     12 H          30.4910    5.3690  117.1690 H       1  UNL1        0.0598
     13 H          31.4810    4.3700  115.0880 H       1  UNL1        0.0336
     14 H          31.7030    6.9280  115.2250 H       1  UNL1        0.0620
     15 H          34.6140    4.2250  116.9150 H       1  UNL1        0.0620
     16 H          33.3620    8.7550  115.3180 H       1  UNL1        0.0618
     17 H          36.2590    6.0630  116.9990 H       1  UNL1        0.0618
     18 H          32.5320    3.3570  116.0380 H       1  UNL1        0.0336
     19 H          29.8060    0.6040  118.1110 H       1  UNL1        0.0721
     20 H          29.3920    3.6960  119.0650 H       1  UNL1        0.1496
     21 H          27.7480    1.9070  117.3940 H       1  UNL1        0.0629
     22 H          28.2710   -0.0290  118.7650 H       1  UNL1        0.0721
     23 H          26.0720   -0.2880  118.6090 H       1  UNL1        0.0465
     24 H          25.0790    2.9060  120.9110 H       1  UNL1        0.0597
     25 H          23.6850    2.6470  118.9770 H       1  UNL1        0.0288
     26 H          23.4830    0.4760  117.8810 H       1  UNL1        0.0281
     27 H          25.7380    1.1080  117.5490 H       1  UNL1        0.0465
     28 H          22.7870    1.6800  120.1540 H       1  UNL1        0.0288
     29 H          23.8710   -0.3770  119.3840 H       1  UNL1        0.0281
     30 H          25.8800   -1.5150  120.9680 H       1  UNL1        0.0252
     31 H          29.0160   -2.0910  123.0920 H       1  UNL1        0.1495
     32 H          28.1790   -3.3700  121.6290 H       1  UNL1        0.0592
     33 H          25.9470   -2.5530  122.4130 H       1  UNL1        0.0252
     34 H          25.9540   -3.2600  120.7980 H       1  UNL1        0.0252
     35 H          38.2250    2.5190  125.4790 H       1  UNL1        0.0272
     36 H          39.5540    1.6970  124.6410 H       1  UNL1        0.0272
     37 H          38.3870    0.7570  125.5920 H       1  UNL1        0.0272
     38 H          28.7300    2.2940  122.4370 H       1  UNL1        0.0252
     39 H          27.3600    0.5810  121.2720 H       1  UNL1        0.0594
     40 H          27.7280    2.1780  123.8830 H       1  UNL1        0.0252
     41 H          27.0530    2.8860  122.4360 H       1  UNL1        0.0252
     42 H          31.6140   -0.6510  117.8860 H       1  UNL1        0.0314
     43 H          30.6240   -1.6620  121.4500 H       1  UNL1        0.0616
     44 H          32.3350   -2.5590  120.1510 H       1  UNL1        0.0292
     45 H          29.6210   -1.8820  117.4960 H       1  UNL1        0.0467
     46 H          32.7180   -3.5100  117.8820 H       1  UNL1        0.0233
     47 H          32.3390   -2.5400  116.4490 H       1  UNL1        0.0233
     48 H          32.7920   -0.8560  119.9810 H       1  UNL1        0.0292
     49 H          30.2550   -3.3570  118.2520 H       1  UNL1        0.0467
     50 H          33.6380   -2.0350  117.5440 H       1  UNL1        0.0233
     51 C          32.3720    3.2880  118.9690 C.2     1  UNL1        0.2375
     52 C          33.1550    3.5650  120.1960 C.2     1  UNL1        0.0001
     53 C          34.1040    2.7030  120.5890 C.2     1  UNL1       -0.0569
     54 C          34.9100    2.9080  121.7720 C.2     1  UNL1       -0.0616
     55 C          35.8790    2.0600  122.1480 C.2     1  UNL1       -0.0621
     56 C          36.6820    2.2640  123.3320 C.2     1  UNL1       -0.0659
     57 C          37.6600    1.4240  123.7030 C.2     1  UNL1       -0.0871
     58 C          38.5000    1.6160  124.9240 C.3     1  UNL1       -0.0465
     59 O          32.3920    2.2100  118.3890 O.2     1  UNL1       -0.2708
     60 N          31.6540    4.3800  118.5380 N.am    1  UNL1       -0.3002
     61 C          31.0190    4.4070  117.2130 C.3     1  UNL1        0.1036
     62 C          29.9270    3.3260  117.0920 C.2     1  UNL1        0.2344
     63 O          29.6420    2.7570  116.0400 O.2     1  UNL1       -0.2738
     64 C          32.0170    4.3250  116.0450 C.3     1  UNL1       -0.0006
     65 C          33.0360    5.4440  116.0690 C.ar    1  UNL1       -0.0451
     66 C          32.6960    6.7270  115.6220 C.ar    1  UNL1       -0.0585
     67 C          34.3270    5.2150  116.5650 C.ar    1  UNL1       -0.0585
     68 C          33.6310    7.7620  115.6710 C.ar    1  UNL1       -0.0615
     69 C          35.2590    6.2510  116.6150 C.ar    1  UNL1       -0.0615
     70 C          34.9110    7.5250  116.1690 C.ar    1  UNL1       -0.0617
     71 N          29.1690    3.1620  118.2300 N.am    1  UNL1       -0.2997
     72 C          28.2200    2.0640  118.3680 C.3     1  UNL1        0.1340
     73 C          27.1380    2.4350  119.4090 C.2     1  UNL1        0.2399
     74 O          27.2630    3.4560  120.0920 O.2     1  UNL1       -0.2734
     75 C          28.9730    0.7970  118.7910 C.3     1  UNL1        0.1193
     76 O          29.4690    0.9540  120.1410 O.3     1  UNL1       -0.4610
     77 N          26.0530    1.5800  119.5730 N.am    1  UNL1       -0.2883
     78 C          24.9830    1.8790  120.5430 C.3     1  UNL1        0.1025
     79 C          24.7600    0.9920  121.8320 C.2     1  UNL1        0.2365
     80 O          23.5930    0.8090  122.2110 O.2     1  UNL1       -0.2735
     81 C          23.7440    1.7700  119.6340 C.3     1  UNL1       -0.0243
     82 C          24.0680    0.5320  118.8030 C.3     1  UNL1       -0.0350
     83 C          25.5610    0.6740  118.5370 C.3     1  UNL1        0.0156
     84 N          25.8050    0.5660  122.6490 N.am    1  UNL1       -0.2917
     85 C          25.4700    0.0720  123.9880 C.3     1  UNL1        0.0040
     86 C          27.2390    0.7030  122.3410 C.3     1  UNL1        0.0991
     87 C          27.7140    2.0920  122.7910 C.3     1  UNL1       -0.0379
     88 C          28.1600   -0.3490  123.0090 C.2     1  UNL1        0.2339
     89 O          28.6670   -0.1570  124.1200 O.2     1  UNL1       -0.2738
     90 N          28.4060   -1.5720  122.4690 N.am    1  UNL1       -0.3027
     91 C          27.8500   -2.3530  121.3630 C.3     1  UNL1        0.0968
     92 C          28.3620   -2.2410  119.8960 C.2     1  UNL1        0.2363
     93 O          27.6380   -2.6390  118.9740 O.2     1  UNL1       -0.2736
     94 C          26.3230   -2.4170  121.3950 C.3     1  UNL1       -0.0381
     95 C          30.5490    0.3010  120.6280 C.2     1  UNL1        0.3279
     96 N          29.6670   -1.9010  119.6090 N.am    1  UNL1       -0.2862
     97 O          31.3390    0.9010  121.3550 O.2     1  UNL1       -0.2487
     98 C          30.6570   -1.2280  120.4480 C.3     1  UNL1        0.1233
     99 C          31.9950   -1.5810  119.7870 C.3     1  UNL1       -0.0199
    100 C          30.2420   -2.2620  118.3140 C.3     1  UNL1        0.0182
    101 C          32.6420   -2.4860  117.5000 C.3     1  UNL1       -0.0609
    102 C          31.6470   -1.6640  118.3010 C.3     1  UNL1       -0.0258
@<TRIPOS>BOND
     1    13    64    1
     2    14    66    1
     3    16    68    1
     4    66    68   ar
     5    66    65   ar
     6    68    70   ar
     7    18    64    1
     8    63    62    2
     9    64    65    1
    10    64    61    1
    11    65    67   ar
    12    70    10    1
    13    70    69   ar
    14    47   101    1
    15    67    69   ar
    16    67    15    1
    17    69    17    1
    18    62    61    1
    19    62    71   am
    20    12    61    1
    21    61    60    1
    22    21    72    1
    23    45   100    1
    24   101    50    1
    25   101    46    1
    26   101   102    1
    27    27    83    1
    28    26    82    1
    29    42   102    1
    30    19    75    1
    31    71    72    1
    32    71    20    1
    33    49   100    1
    34   102   100    1
    35   102    99    1
    36   100    96    1
    37    72    75    1
    38    72    73    1
    39    59    51    2
    40    83    23    1
    41    83    82    1
    42    83    77    1
    43    60    51   am
    44    60    11    1
    45    22    75    1
    46    75    76    1
    47    82    29    1
    48    82    81    1
    49    51    52    1
    50    93    92    2
    51    25    81    1
    52    73    77   am
    53    73    74    2
    54    77    78    1
    55    96    92   am
    56    96    98    1
    57    81    28    1
    58    81    78    1
    59    99    48    1
    60    99    44    1
    61    99    98    1
    62    92    91    1
    63     2    53    1
    64    76    95    1
    65    52    53    2
    66    52     1    1
    67    98    95    1
    68    98    43    1
    69    78    24    1
    70    78    79    1
    71    53    54    1
    72    95    97    2
    73    34    94    1
    74    30    94    1
    75    39    86    1
    76    91    94    1
    77    91    32    1
    78    91    90    1
    79    94    33    1
    80     4    55    1
    81    54    55    2
    82    54     3    1
    83    79    80    2
    84    79    84   am
    85    55    56    1
    86    86    84    1
    87    86    87    1
    88    86    88    1
    89    41    87    1
    90    38    87    1
    91    90    88   am
    92    90    31    1
    93    84    85    1
    94    87    40    1
    95    88    89    2
    96     6    57    1
    97    56    57    2
    98    56     5    1
    99    57    58    1
   100    85     9    1
   101    85     7    1
   102    85     8    1
   103    36    58    1
   104    58    35    1
   105    58    37    1
