@<TRIPOS>MOLECULE
165.04500
 102 105 0 0 0
SMALL
GASTEIGER

@<TRIPOS>ATOM
      1 H          29.4540    1.9250  134.2930 H       1  UNL1        0.0669
      2 H          32.3360    2.8070  134.9170 H       1  UNL1        0.0619
      3 H          29.5740    3.3140  136.2830 H       1  UNL1        0.0618
      4 H          32.4140    4.3080  136.9110 H       1  UNL1        0.0617
      5 H          29.6230    4.7540  138.2300 H       1  UNL1        0.0614
      6 H          32.4350    5.8140  138.8700 H       1  UNL1        0.0569
      7 H          24.3940    0.6830  124.2350 H       1  UNL1        0.0429
      8 H          23.1060    1.6520  124.9490 H       1  UNL1        0.0429
      9 H          22.8060   -0.0590  124.5580 H       1  UNL1        0.0429
     10 H          32.9590   -3.8730  126.8860 H       1  UNL1        0.0618
     11 H          29.2310    0.8730  132.3870 H       1  UNL1        0.1498
     12 H          31.3310    0.6250  130.4310 H       1  UNL1        0.0598
     13 H          30.1310   -1.9530  131.6520 H       1  UNL1        0.0336
     14 H          29.7780   -3.3160  129.7070 H       1  UNL1        0.0620
     15 H          33.4390   -1.0580  130.0910 H       1  UNL1        0.0620
     16 H          30.6870   -4.4310  127.7050 H       1  UNL1        0.0618
     17 H          34.3320   -2.1910  128.0850 H       1  UNL1        0.0618
     18 H          31.7420   -1.4040  132.0370 H       1  UNL1        0.0336
     19 H          27.5620    1.8530  128.7090 H       1  UNL1        0.0721
     20 H          30.2220   -0.3140  128.3460 H       1  UNL1        0.1496
     21 H          27.4050   -0.6770  128.5050 H       1  UNL1        0.0629
     22 H          26.5770    1.2820  127.3720 H       1  UNL1        0.0721
     23 H          28.2850   -3.2520  125.5250 H       1  UNL1        0.0465
     24 H          26.4010    0.2750  125.1070 H       1  UNL1        0.0597
     25 H          25.9140   -1.1590  123.3610 H       1  UNL1        0.0288
     26 H          26.4540   -3.5030  123.5600 H       1  UNL1        0.0281
     27 H          28.3650   -2.0970  124.1710 H       1  UNL1        0.0465
     28 H          24.5610   -1.7860  124.3180 H       1  UNL1        0.0288
     29 H          25.8910   -3.5460  125.2450 H       1  UNL1        0.0281
     30 H          26.5450    3.7850  128.8400 H       1  UNL1        0.0252
     31 H          24.1930    2.6610  126.4980 H       1  UNL1        0.1495
     32 H          23.5940    4.4700  128.4330 H       1  UNL1        0.0592
     33 H          25.2580    3.4100  129.9830 H       1  UNL1        0.0252
     34 H          25.6510    5.0900  129.5920 H       1  UNL1        0.0252
     35 H          29.6290    6.2170  140.1460 H       1  UNL1        0.0272
     36 H          30.8600    7.4820  139.9830 H       1  UNL1        0.0272
     37 H          31.1480    6.0950  141.0520 H       1  UNL1        0.0272
     38 H          21.6120   -0.2540  128.7760 H       1  UNL1        0.0252
     39 H          22.1120    1.0210  126.8700 H       1  UNL1        0.0594
     40 H          23.2420   -0.8630  128.9690 H       1  UNL1        0.0252
     41 H          22.2510   -1.4150  127.5990 H       1  UNL1        0.0252
     42 H          28.3770    5.3960  124.5430 H       1  UNL1        0.0314
     43 H          26.1050    2.6550  125.9350 H       1  UNL1        0.0616
     44 H          26.3690    3.2560  123.6920 H       1  UNL1        0.0292
     45 H          26.6280    6.6720  125.4640 H       1  UNL1        0.0467
     46 H          26.3740    5.2640  122.2220 H       1  UNL1        0.0233
     47 H          27.4680    6.6110  122.5740 H       1  UNL1        0.0233
     48 H          28.0770    3.0320  124.1120 H       1  UNL1        0.0292
     49 H          25.3910    5.9560  124.4070 H       1  UNL1        0.0467
     50 H          28.1250    5.0340  122.0990 H       1  UNL1        0.0233
     51 C          31.1560    1.3200  133.0290 C.2     1  UNL1        0.2375
     52 C          30.5280    2.0100  134.1820 C.2     1  UNL1        0.0001
     53 C          31.2580    2.7260  135.0480 C.2     1  UNL1       -0.0569
     54 C          30.6510    3.4220  136.1620 C.2     1  UNL1       -0.0616
     55 C          31.3390    4.1860  137.0240 C.2     1  UNL1       -0.0621
     56 C          30.6980    4.8830  138.1170 C.2     1  UNL1       -0.0659
     57 C          31.3620    5.6730  138.9730 C.2     1  UNL1       -0.0871
     58 C          30.7070    6.4050  140.1000 C.3     1  UNL1       -0.0465
     59 O          32.3640    1.2630  132.8480 O.2     1  UNL1       -0.2708
     60 N          30.2240    0.7680  132.1980 N.am    1  UNL1       -0.3002
     61 C          30.5530    0.0610  130.9570 C.3     1  UNL1        0.1036
     62 C          29.2430    0.1040  130.1480 C.2     1  UNL1        0.2344
     63 O          28.1550    0.2900  130.7030 O.2     1  UNL1       -0.2738
     64 C          30.9800   -1.3850  131.2480 C.3     1  UNL1       -0.0006
     65 C          31.5420   -2.1020  130.0440 C.ar    1  UNL1       -0.0451
     66 C          30.7790   -3.0630  129.3670 C.ar    1  UNL1       -0.0585
     67 C          32.8270   -1.7960  129.5760 C.ar    1  UNL1       -0.0585
     68 C          31.2900   -3.6980  128.2340 C.ar    1  UNL1       -0.0615
     69 C          33.3350   -2.4350  128.4440 C.ar    1  UNL1       -0.0615
     70 C          32.5660   -3.3830  127.7720 C.ar    1  UNL1       -0.0617
     71 N          29.3380   -0.0720  128.7920 N.am    1  UNL1       -0.2997
     72 C          28.1350   -0.0840  127.9480 C.3     1  UNL1        0.1340
     73 C          28.4530   -0.8530  126.6500 C.2     1  UNL1        0.2399
     74 O          29.6290   -1.1230  126.3720 O.2     1  UNL1       -0.2734
     75 C          27.5920    1.3290  127.7490 C.3     1  UNL1        0.1193
     76 O          28.4010    2.0960  126.8440 O.3     1  UNL1       -0.4610
     77 N          27.4280   -1.3570  125.8690 N.am    1  UNL1       -0.2883
     78 C          26.1480   -0.7260  125.4750 C.3     1  UNL1        0.1025
     79 C          25.0620   -0.5480  126.5650 C.2     1  UNL1        0.2365
     80 O          25.2430   -1.0120  127.6900 O.2     1  UNL1       -0.2735
     81 C          25.6400   -1.6150  124.3210 C.3     1  UNL1       -0.0243
     82 C          26.3890   -2.9280  124.4880 C.3     1  UNL1       -0.0350
     83 C          27.7390   -2.4700  124.9900 C.3     1  UNL1        0.0156
     84 N          23.9460    0.2450  126.2700 N.am    1  UNL1       -0.2917
     85 C          23.5510    0.6530  124.9240 C.3     1  UNL1        0.0040
     86 C          23.0060    0.6150  127.3660 C.3     1  UNL1        0.0991
     87 C          22.5080   -0.5510  128.2190 C.3     1  UNL1       -0.0379
     88 C          23.5380    1.7960  128.2280 C.2     1  UNL1        0.2339
     89 O          23.2020    1.9780  129.3940 O.2     1  UNL1       -0.2738
     90 N          24.2200    2.7600  127.5000 N.am    1  UNL1       -0.3027
     91 C          24.5410    4.0830  128.0340 C.3     1  UNL1        0.0968
     92 C          24.9800    5.0750  126.9280 C.2     1  UNL1        0.2363
     93 O          24.4750    6.2040  126.9180 O.2     1  UNL1       -0.2736
     94 C          25.5520    4.0820  129.1720 C.3     1  UNL1       -0.0381
     95 C          27.9970    3.3910  126.6910 C.2     1  UNL1        0.3279
     96 N          25.9580    4.7510  126.0050 N.am    1  UNL1       -0.2862
     97 O          28.6810    4.3350  127.0640 O.2     1  UNL1       -0.2487
     98 C          26.7420    3.5230  125.8050 C.3     1  UNL1        0.1233
     99 C          27.1790    3.6150  124.3400 C.3     1  UNL1       -0.0199
    100 C          26.2970    5.7430  124.9870 C.3     1  UNL1        0.0182
    101 C          27.3360    5.5280  122.6740 C.3     1  UNL1       -0.0609
    102 C          27.3980    5.1150  124.1350 C.3     1  UNL1       -0.0258
@<TRIPOS>BOND
     1    50   101    1
     2    46   101    1
     3    47   101    1
     4   101   102    1
     5    25    81    1
     6    26    82    1
     7    44    99    1
     8    48    99    1
     9   102    99    1
    10   102    42    1
    11   102   100    1
    12    27    83    1
    13     7    85    1
    14    28    81    1
    15    81    82    1
    16    81    78    1
    17    99    98    1
    18    49   100    1
    19    82    83    1
    20    82    29    1
    21     9    85    1
    22    85     8    1
    23    85    84    1
    24   100    45    1
    25   100    96    1
    26    83    23    1
    27    83    77    1
    28    24    78    1
    29    78    77    1
    30    78    79    1
    31    98    43    1
    32    98    96    1
    33    98    95    1
    34    77    73   am
    35    96    92   am
    36    84    79   am
    37    84    86    1
    38    74    73    2
    39    31    90    1
    40    79    80    2
    41    73    72    1
    42    95    76    1
    43    95    97    2
    44    76    75    1
    45    39    86    1
    46    10    70    1
    47    93    92    2
    48    92    91    1
    49    86    87    1
    50    86    88    1
    51    22    75    1
    52    90    91    1
    53    90    88   am
    54    41    87    1
    55    16    68    1
    56    75    72    1
    57    75    19    1
    58    70    68   ar
    59    70    69   ar
    60    72    21    1
    61    72    71    1
    62    91    32    1
    63    91    94    1
    64    17    69    1
    65    87    38    1
    66    87    40    1
    67    88    89    2
    68    68    66   ar
    69    20    71    1
    70    69    67   ar
    71    71    62   am
    72    30    94    1
    73    94    34    1
    74    94    33    1
    75    66    14    1
    76    66    65   ar
    77    67    65   ar
    78    67    15    1
    79    65    64    1
    80    62    63    2
    81    62    61    1
    82    12    61    1
    83    61    64    1
    84    61    60    1
    85    64    13    1
    86    64    18    1
    87    60    11    1
    88    60    51   am
    89    59    51    2
    90    51    52    1
    91    52     1    1
    92    52    53    2
    93     2    53    1
    94    53    54    1
    95    54     3    1
    96    54    55    2
    97     4    55    1
    98    55    56    1
    99    56     5    1
   100    56    57    2
   101     6    57    1
   102    57    58    1
   103    36    58    1
   104    58    35    1
   105    58    37    1
