@<TRIPOS>MOLECULE
127.96876
 102 105 0 0 0
SMALL
GASTEIGER

@<TRIPOS>ATOM
      1 H          33.2680    2.4190  115.5020 H       1  UNL1        0.0669
      2 H          34.8870    4.9750  116.0940 H       1  UNL1        0.0619
      3 H          35.5430    2.3810  114.4890 H       1  UNL1        0.0618
      4 H          37.1710    4.8880  115.2100 H       1  UNL1        0.0617
      5 H          37.8280    2.3050  113.5950 H       1  UNL1        0.0614
      6 H          39.4690    4.7870  114.3660 H       1  UNL1        0.0569
      7 H          27.0570   -3.0160  119.2840 H       1  UNL1        0.0429
      8 H          25.9200   -3.9790  120.2510 H       1  UNL1        0.0429
      9 H          27.6700   -4.3210  120.3150 H       1  UNL1        0.0429
     10 H          26.5280    1.3040  113.8390 H       1  UNL1        0.0618
     11 H          31.4640    2.2730  116.8440 H       1  UNL1        0.1498
     12 H          30.8810    4.3630  118.7580 H       1  UNL1        0.0598
     13 H          29.6100    5.2680  116.8370 H       1  UNL1        0.0336
     14 H          29.7240    4.0440  114.6800 H       1  UNL1        0.0620
     15 H          27.0430    2.7890  117.8260 H       1  UNL1        0.0620
     16 H          28.4770    2.6370  113.0780 H       1  UNL1        0.0618
     17 H          25.8240    1.3850  116.2170 H       1  UNL1        0.0618
     18 H          28.5460    4.7430  118.1160 H       1  UNL1        0.0336
     19 H          29.3530    0.7150  122.7270 H       1  UNL1        0.0721
     20 H          28.7890    3.5570  120.0780 H       1  UNL1        0.1496
     21 H          28.5230    0.6860  120.1670 H       1  UNL1        0.0629
     22 H          30.0480    2.2680  122.3480 H       1  UNL1        0.0721
     23 H          24.7330    2.2560  121.5330 H       1  UNL1        0.0465
     24 H          27.5890   -0.3840  122.8490 H       1  UNL1        0.0597
     25 H          25.6720   -0.2670  124.2310 H       1  UNL1        0.0288
     26 H          23.5730    0.6160  123.3720 H       1  UNL1        0.0281
     27 H          25.3180    2.2880  123.2130 H       1  UNL1        0.0465
     28 H          25.0660   -1.5630  123.1810 H       1  UNL1        0.0288
     29 H          23.9270    0.0050  121.7440 H       1  UNL1        0.0281
     30 H          30.8560   -5.9950  122.0580 H       1  UNL1        0.0252
     31 H          29.3640   -3.1480  121.0290 H       1  UNL1        0.1495
     32 H          31.5860   -3.0730  122.6380 H       1  UNL1        0.0592
     33 H          31.0810   -5.2590  123.6460 H       1  UNL1        0.0252
     34 H          32.4640   -5.4490  122.5620 H       1  UNL1        0.0252
     35 H          40.0990    2.2030  112.7610 H       1  UNL1        0.0272
     36 H          41.2250    3.0150  113.8630 H       1  UNL1        0.0272
     37 H          40.7140    3.8180  112.3660 H       1  UNL1        0.0272
     38 H          26.8000   -4.7620  124.0530 H       1  UNL1        0.0252
     39 H          27.0840   -2.4350  123.4620 H       1  UNL1        0.0594
     40 H          26.9630   -5.2830  122.3800 H       1  UNL1        0.0252
     41 H          25.5510   -4.3270  122.8740 H       1  UNL1        0.0252
     42 H          31.9240   -0.5750  118.0700 H       1  UNL1        0.0314
     43 H          32.6540   -1.3940  121.7500 H       1  UNL1        0.0616
     44 H          34.1760   -0.6070  120.1380 H       1  UNL1        0.0292
     45 H          31.9820   -2.9370  118.0050 H       1  UNL1        0.0467
     46 H          34.9340   -1.0880  117.8070 H       1  UNL1        0.0233
     47 H          33.7500   -1.1280  116.4900 H       1  UNL1        0.0233
     48 H          32.9610    0.6570  119.9000 H       1  UNL1        0.0292
     49 H          33.6130   -3.0250  118.7080 H       1  UNL1        0.0467
     50 H          34.0900    0.3940  117.3320 H       1  UNL1        0.0233
     51 C          32.4810    4.0880  116.7190 C.2     1  UNL1        0.2375
     52 C          33.5020    3.4020  115.8910 C.2     1  UNL1        0.0001
     53 C          34.6880    3.9890  115.6740 C.2     1  UNL1       -0.0569
     54 C          35.7500    3.3570  114.9240 C.2     1  UNL1       -0.0616
     55 C          36.9600    3.9160  114.7700 C.2     1  UNL1       -0.0621
     56 C          38.0340    3.2740  114.0450 C.2     1  UNL1       -0.0659
     57 C          39.2520    3.8200  113.9180 C.2     1  UNL1       -0.0871
     58 C          40.3810    3.1720  113.1840 C.3     1  UNL1       -0.0465
     59 O          32.5610    5.2640  117.0450 O.2     1  UNL1       -0.2708
     60 N          31.4730    3.2540  117.1070 N.am    1  UNL1       -0.3002
     61 C          30.4280    3.6650  118.0420 C.3     1  UNL1        0.1036
     62 C          30.0160    2.4130  118.8390 C.2     1  UNL1        0.2344
     63 O          30.4500    1.2940  118.5660 O.2     1  UNL1       -0.2738
     64 C          29.2480    4.3720  117.3580 C.3     1  UNL1       -0.0006
     65 C          28.4810    3.5190  116.3730 C.ar    1  UNL1       -0.0451
     66 C          28.8710    3.4640  115.0280 C.ar    1  UNL1       -0.0585
     67 C          27.3740    2.7660  116.7900 C.ar    1  UNL1       -0.0585
     68 C          28.1700    2.6710  114.1190 C.ar    1  UNL1       -0.0615
     69 C          26.6770    1.9700  115.8810 C.ar    1  UNL1       -0.0615
     70 C          27.0740    1.9230  114.5460 C.ar    1  UNL1       -0.0617
     71 N          29.1800    2.6350  119.9000 N.am    1  UNL1       -0.2997
     72 C          28.7170    1.5580  120.7920 C.3     1  UNL1        0.1340
     73 C          27.3910    2.0500  121.3910 C.2     1  UNL1        0.2399
     74 O          27.1430    3.2650  121.3760 O.2     1  UNL1       -0.2734
     75 C          29.7510    1.3110  121.9020 C.3     1  UNL1        0.1193
     76 O          30.9720    0.6840  121.4530 O.3     1  UNL1       -0.4610
     77 N          26.4910    1.1590  121.9300 N.am    1  UNL1       -0.2883
     78 C          26.6560   -0.2680  122.2950 C.3     1  UNL1        0.1025
     79 C          26.6590   -1.2700  121.1120 C.2     1  UNL1        0.2365
     80 O          26.2980   -0.8950  119.9930 O.2     1  UNL1       -0.2735
     81 C          25.4320   -0.5330  123.1940 C.3     1  UNL1       -0.0243
     82 C          24.3750    0.4190  122.6560 C.3     1  UNL1       -0.0350
     83 C          25.1830    1.6550  122.3290 C.3     1  UNL1        0.0156
     84 N          27.0190   -2.6050  121.3640 N.am    1  UNL1       -0.2917
     85 C          26.9190   -3.5310  120.2380 C.3     1  UNL1        0.0040
     86 C          27.3810   -3.1590  122.7010 C.3     1  UNL1        0.0991
     87 C          26.6300   -4.4560  123.0150 C.3     1  UNL1       -0.0379
     88 C          28.8890   -3.3740  122.9910 C.2     1  UNL1        0.2339
     89 O          29.3000   -3.4950  124.1450 O.2     1  UNL1       -0.2738
     90 N          29.6980   -3.5510  121.9030 N.am    1  UNL1       -0.3027
     91 C          31.1290   -3.8300  121.9960 C.3     1  UNL1        0.0968
     92 C          31.7210   -3.7710  120.5700 C.2     1  UNL1        0.2363
     93 O          31.7300   -4.7730  119.8480 O.2     1  UNL1       -0.2736
     94 C          31.3960   -5.2100  122.5990 C.3     1  UNL1       -0.0381
     95 C          30.8390   -0.5820  120.9630 C.2     1  UNL1        0.3279
     96 N          32.1250   -2.5480  120.0690 N.am    1  UNL1       -0.2862
     97 O          29.7610   -1.1570  120.8630 O.2     1  UNL1       -0.2487
     98 C          32.2100   -1.2480  120.7600 C.3     1  UNL1        0.1233
     99 C          33.1320   -0.4230  119.8550 C.3     1  UNL1       -0.0199
    100 C          32.6670   -2.4710  118.7210 C.3     1  UNL1        0.0182
    101 C          33.9740   -0.6860  117.4660 C.3     1  UNL1       -0.0609
    102 C          32.8620   -0.9850  118.4560 C.3     1  UNL1       -0.0258
@<TRIPOS>BOND
     1    37    58    1
     2    35    58    1
     3    16    68    1
     4    58    36    1
     5    58    57    1
     6     5    56    1
     7    10    70    1
     8    57    56    2
     9    57     6    1
    10    56    55    1
    11    68    70   ar
    12    68    66   ar
    13     3    54    1
    14    70    69   ar
    15    14    66    1
    16    55    54    2
    17    55     4    1
    18    54    53    1
    19    66    65   ar
    20     1    52    1
    21    53    52    2
    22    53     2    1
    23    69    17    1
    24    69    67   ar
    25    52    51    1
    26    65    67   ar
    27    65    64    1
    28    47   101    1
    29    51    59    2
    30    51    60   am
    31    67    15    1
    32    13    64    1
    33    11    60    1
    34    60    61    1
    35    50   101    1
    36    64    61    1
    37    64    18    1
    38   101    46    1
    39   101   102    1
    40    45   100    1
    41    61    12    1
    42    61    62    1
    43    42   102    1
    44   102   100    1
    45   102    99    1
    46    63    62    2
    47    49   100    1
    48   100    96    1
    49    62    71   am
    50     7    85    1
    51    93    92    2
    52    99    48    1
    53    99    44    1
    54    99    98    1
    55    71    20    1
    56    71    72    1
    57    80    79    2
    58    96    92   am
    59    96    98    1
    60    21    72    1
    61    85     8    1
    62    85     9    1
    63    85    84    1
    64    92    91    1
    65    98    95    1
    66    98    43    1
    67    72    73    1
    68    72    75    1
    69    97    95    2
    70    95    76    1
    71    31    90    1
    72    79    84   am
    73    79    78    1
    74    84    86    1
    75    74    73    2
    76    73    77   am
    77    76    75    1
    78    23    83    1
    79    29    82    1
    80    75    22    1
    81    75    19    1
    82    90    91    1
    83    90    88   am
    84    77    78    1
    85    77    83    1
    86    91    94    1
    87    91    32    1
    88    30    94    1
    89    78    24    1
    90    78    81    1
    91    83    82    1
    92    83    27    1
    93    40    87    1
    94    34    94    1
    95    94    33    1
    96    82    81    1
    97    82    26    1
    98    86    88    1
    99    86    87    1
   100    86    39    1
   101    41    87    1
   102    88    89    2
   103    87    38    1
   104    28    81    1
   105    81    25    1
