@<TRIPOS>MOLECULE
144.93041
 102 105 0 0 0
SMALL
GASTEIGER

@<TRIPOS>ATOM
      1 H          19.0380   -1.3670  129.7350 H       1  UNL1        0.0669
      2 H          19.0230    1.1430  131.5210 H       1  UNL1        0.0619
      3 H          16.7580   -0.6760  130.3800 H       1  UNL1        0.0618
      4 H          16.7380    1.8740  132.0980 H       1  UNL1        0.0617
      5 H          14.4960    0.0230  130.9720 H       1  UNL1        0.0614
      6 H          14.4530    2.6010  132.6460 H       1  UNL1        0.0569
      7 H          25.1150   -7.7580  123.6840 H       1  UNL1        0.0429
      8 H          25.2220   -7.4820  121.9370 H       1  UNL1        0.0429
      9 H          23.8670   -6.7810  122.8770 H       1  UNL1        0.0429
     10 H          22.6890   -7.0230  131.6990 H       1  UNL1        0.0618
     11 H          21.0690   -1.9190  129.0110 H       1  UNL1        0.1498
     12 H          23.3390   -0.2050  129.3080 H       1  UNL1        0.0598
     13 H          23.4650   -1.2300  131.5760 H       1  UNL1        0.0336
     14 H          21.6330   -2.8820  132.0900 H       1  UNL1        0.0620
     15 H          25.2150   -4.0270  129.9660 H       1  UNL1        0.0620
     16 H          21.1560   -5.2620  132.5390 H       1  UNL1        0.0618
     17 H          24.7140   -6.3920  130.4130 H       1  UNL1        0.0618
     18 H          24.8200   -1.6880  130.5830 H       1  UNL1        0.0336
     19 H          24.0530   -1.5820  125.3600 H       1  UNL1        0.0721
     20 H          25.3990   -1.7780  128.4550 H       1  UNL1        0.1496
     21 H          24.5070   -3.8210  126.6760 H       1  UNL1        0.0629
     22 H          24.9130   -2.9120  124.5780 H       1  UNL1        0.0721
     23 H          28.2760   -5.2260  127.8230 H       1  UNL1        0.0465
     24 H          27.0570   -3.6500  124.2500 H       1  UNL1        0.0597
     25 H          29.2110   -4.6180  124.1980 H       1  UNL1        0.0288
     26 H          29.8920   -6.2160  125.8910 H       1  UNL1        0.0281
     27 H          29.2460   -4.0810  126.8650 H       1  UNL1        0.0465
     28 H          28.3530   -6.1090  123.7440 H       1  UNL1        0.0288
     29 H          28.2370   -6.8440  126.0340 H       1  UNL1        0.0281
     30 H          28.2820   -2.4100  119.0650 H       1  UNL1        0.0252
     31 H          26.1200   -2.2440  121.4880 H       1  UNL1        0.1495
     32 H          28.8780   -2.0340  122.0500 H       1  UNL1        0.0592
     33 H          29.3730   -3.3860  120.0530 H       1  UNL1        0.0252
     34 H          29.7790   -1.7070  119.7030 H       1  UNL1        0.0252
     35 H          12.2480    0.7200  131.5250 H       1  UNL1        0.0272
     36 H          12.1300    2.4870  131.5990 H       1  UNL1        0.0272
     37 H          12.1860    1.5360  133.0970 H       1  UNL1        0.0272
     38 H          24.4540   -3.4490  120.9170 H       1  UNL1        0.0252
     39 H          25.7580   -5.5260  121.0680 H       1  UNL1        0.0594
     40 H          24.2830   -3.4260  122.6780 H       1  UNL1        0.0252
     41 H          23.5920   -4.7380  121.7450 H       1  UNL1        0.0252
     42 H          25.7060    2.0030  123.5410 H       1  UNL1        0.0314
     43 H          28.2970   -0.8020  123.7810 H       1  UNL1        0.0616
     44 H          28.5780    1.4900  124.4590 H       1  UNL1        0.0292
     45 H          26.4380    1.8910  121.2880 H       1  UNL1        0.0467
     46 H          28.1740    3.8250  123.6460 H       1  UNL1        0.0233
     47 H          26.5730    4.2800  123.0400 H       1  UNL1        0.0233
     48 H          27.0820    1.1240  125.3390 H       1  UNL1        0.0292
     49 H          28.1320    2.2410  121.7020 H       1  UNL1        0.0467
     50 H          26.7930    3.8780  124.7530 H       1  UNL1        0.0233
     51 C          20.8910   -0.3410  130.3580 C.2     1  UNL1        0.2375
     52 C          19.4220   -0.5330  130.3080 C.2     1  UNL1        0.0001
     53 C          18.6050    0.3110  130.9560 C.2     1  UNL1       -0.0569
     54 C          17.1660    0.1690  130.9320 C.2     1  UNL1       -0.0616
     55 C          16.3370    1.0250  131.5470 C.2     1  UNL1       -0.0621
     56 C          14.8990    0.8780  131.5120 C.2     1  UNL1       -0.0659
     57 C          14.0620    1.7420  132.1050 C.2     1  UNL1       -0.0871
     58 C          12.5740    1.6080  132.0760 C.3     1  UNL1       -0.0465
     59 O          21.4340    0.5300  131.0240 O.2     1  UNL1       -0.2708
     60 N          21.5640   -1.2410  129.5820 N.am    1  UNL1       -0.3002
     61 C          23.0190   -1.2460  129.4490 C.3     1  UNL1        0.1036
     62 C          23.3450   -2.0040  128.1450 C.2     1  UNL1        0.2344
     63 O          22.4640   -2.4500  127.4070 O.2     1  UNL1       -0.2738
     64 C          23.7350   -1.8170  130.6880 C.3     1  UNL1       -0.0006
     65 C          23.4490   -3.2740  130.9790 C.ar    1  UNL1       -0.0451
     66 C          22.3120   -3.6430  131.7110 C.ar    1  UNL1       -0.0585
     67 C          24.3140   -4.2780  130.5220 C.ar    1  UNL1       -0.0585
     68 C          22.0400   -4.9870  131.9690 C.ar    1  UNL1       -0.0615
     69 C          24.0380   -5.6220  130.7770 C.ar    1  UNL1       -0.0615
     70 C          22.9010   -5.9760  131.4990 C.ar    1  UNL1       -0.0617
     71 N          24.6740   -2.1040  127.8210 N.am    1  UNL1       -0.2997
     72 C          25.1360   -2.9230  126.6890 C.3     1  UNL1        0.1340
     73 C          26.5730   -3.3520  127.0380 C.2     1  UNL1        0.2399
     74 O          27.0710   -2.9480  128.1030 O.2     1  UNL1       -0.2734
     75 C          24.9760   -2.1720  125.3740 C.3     1  UNL1        0.1193
     76 O          26.0830   -1.2910  125.1190 O.3     1  UNL1       -0.4610
     77 N          27.2710   -4.2380  126.2510 N.am    1  UNL1       -0.2883
     78 C          27.1270   -4.5790  124.8130 C.3     1  UNL1        0.1025
     79 C          25.9330   -5.4920  124.4560 C.2     1  UNL1        0.2365
     80 O          25.2610   -6.0010  125.3580 O.2     1  UNL1       -0.2735
     81 C          28.4390   -5.3320  124.5090 C.3     1  UNL1       -0.0243
     82 C          28.8340   -5.9450  125.8420 C.3     1  UNL1       -0.0350
     83 C          28.4650   -4.8490  126.8130 C.3     1  UNL1        0.0156
     84 N          25.7060   -5.8110  123.1110 N.am    1  UNL1       -0.2917
     85 C          24.9330   -7.0280  122.8890 C.3     1  UNL1        0.0040
     86 C          25.7540   -4.8670  121.9500 C.3     1  UNL1        0.0991
     87 C          24.4570   -4.0700  121.8190 C.3     1  UNL1       -0.0379
     88 C          27.0790   -4.0870  121.7150 C.2     1  UNL1        0.2339
     89 O          28.1640   -4.6670  121.7620 O.2     1  UNL1       -0.2738
     90 N          27.0100   -2.7400  121.4470 N.am    1  UNL1       -0.3027
     91 C          28.2050   -1.9240  121.1930 C.3     1  UNL1        0.0968
     92 C          27.8260   -0.4270  121.0290 C.2     1  UNL1        0.2363
     93 O          27.7520    0.0910  119.9110 O.2     1  UNL1       -0.2736
     94 C          28.9490   -2.3850  119.9340 C.3     1  UNL1       -0.0381
     95 C          26.1490   -0.8670  123.8250 C.2     1  UNL1        0.3279
     96 N          27.5270    0.3120  122.1560 N.am    1  UNL1       -0.2862
     97 O          25.3210   -1.1420  122.9630 O.2     1  UNL1       -0.2487
     98 C          27.4660   -0.1280  123.5560 C.3     1  UNL1        0.1233
     99 C          27.5310    1.1810  124.3430 C.3     1  UNL1       -0.0199
    100 C          27.2210    1.7300  122.0360 C.3     1  UNL1        0.0182
    101 C          27.1020    3.6190  123.7350 C.3     1  UNL1       -0.0609
    102 C          26.7860    2.1650  123.4330 C.3     1  UNL1       -0.0258
@<TRIPOS>BOND
     1    30    94    1
     2    34    94    1
     3    93    92    2
     4    94    33    1
     5    94    91    1
     6    38    87    1
     7    92    91    1
     8    92    96   am
     9    39    86    1
    10    91    90    1
    11    91    32    1
    12    45   100    1
    13    90    31    1
    14    90    88   am
    15    49   100    1
    16    88    89    2
    17    88    86    1
    18    41    87    1
    19    87    86    1
    20    87    40    1
    21     8    85    1
    22    86    84    1
    23   100    96    1
    24   100   102    1
    25    96    98    1
    26     9    85    1
    27    85    84    1
    28    85     7    1
    29    97    95    2
    30    47   101    1
    31    84    79   am
    32   102    42    1
    33   102   101    1
    34   102    99    1
    35    98    43    1
    36    98    95    1
    37    98    99    1
    38    46   101    1
    39   101    50    1
    40    28    81    1
    41    95    76    1
    42    25    81    1
    43    24    78    1
    44    99    44    1
    45    99    48    1
    46    79    78    1
    47    79    80    2
    48    81    78    1
    49    81    82    1
    50    22    75    1
    51    78    77    1
    52    76    75    1
    53    19    75    1
    54    75    72    1
    55    82    26    1
    56    82    29    1
    57    82    83    1
    58    77    83    1
    59    77    73   am
    60    21    72    1
    61    72    73    1
    62    72    71    1
    63    83    27    1
    64    83    23    1
    65    73    74    2
    66    63    62    2
    67    71    62   am
    68    71    20    1
    69    62    61    1
    70    11    60    1
    71    12    61    1
    72    61    60    1
    73    61    64    1
    74    60    51   am
    75     1    52    1
    76    15    67    1
    77    52    51    1
    78    52    53    2
    79    51    59    2
    80     3    54    1
    81    17    69    1
    82    67    69   ar
    83    67    65   ar
    84    18    64    1
    85    64    65    1
    86    64    13    1
    87    69    70   ar
    88    54    53    1
    89    54    55    2
    90    53     2    1
    91     5    56    1
    92    65    66   ar
    93    70    10    1
    94    70    68   ar
    95    56    55    1
    96    56    57    2
    97    35    58    1
    98    55     4    1
    99    36    58    1
   100    66    68   ar
   101    66    14    1
   102    68    16    1
   103    58    57    1
   104    58    37    1
   105    57     6    1
