@<TRIPOS>MOLECULE
123.37287
 102 105 0 0 0
SMALL
GASTEIGER

@<TRIPOS>ATOM
      1 H          31.1560   -1.7040  123.4810 H       1  UNL1        0.0669
      2 H          30.6700   -0.4320  126.2420 H       1  UNL1        0.0619
      3 H          30.8350   -3.3870  125.2500 H       1  UNL1        0.0618
      4 H          30.3920   -2.1270  128.0190 H       1  UNL1        0.0617
      5 H          30.5290   -5.0690  126.9950 H       1  UNL1        0.0614
      6 H          30.1160   -3.8250  129.7750 H       1  UNL1        0.0569
      7 H          30.3550    4.9300  113.0690 H       1  UNL1        0.0429
      8 H          31.3560    6.1700  112.2840 H       1  UNL1        0.0429
      9 H          30.0180    6.6440  113.3740 H       1  UNL1        0.0429
     10 H          33.6040    7.2350  119.4430 H       1  UNL1        0.0618
     11 H          31.5610   -0.2260  121.8840 H       1  UNL1        0.1498
     12 H          30.6330    2.4920  122.0360 H       1  UNL1        0.0598
     13 H          33.6600    1.9190  121.8970 H       1  UNL1        0.0336
     14 H          34.9100    3.2780  120.4700 H       1  UNL1        0.0620
     15 H          31.2600    4.8740  122.1460 H       1  UNL1        0.0620
     16 H          35.2640    5.3960  119.2590 H       1  UNL1        0.0618
     17 H          31.6030    6.9550  120.8800 H       1  UNL1        0.0618
     18 H          32.8720    2.8000  123.1840 H       1  UNL1        0.0336
     19 H          28.8830    1.1840  118.2160 H       1  UNL1        0.0721
     20 H          30.6220    3.3940  119.8060 H       1  UNL1        0.1496
     21 H          31.3440    1.3790  117.7280 H       1  UNL1        0.0629
     22 H          29.2850    1.6450  116.5650 H       1  UNL1        0.0721
     23 H          33.1070    1.4080  116.5260 H       1  UNL1        0.0465
     24 H          32.9420    5.4790  116.6520 H       1  UNL1        0.0597
     25 H          35.1490    4.7020  116.6760 H       1  UNL1        0.0288
     26 H          35.6370    2.4090  116.1400 H       1  UNL1        0.0281
     27 H          33.9160    2.3090  117.8340 H       1  UNL1        0.0465
     28 H          34.9950    4.7370  114.9100 H       1  UNL1        0.0288
     29 H          34.4410    2.3930  114.8360 H       1  UNL1        0.0281
     30 H          27.8050    8.2320  115.7340 H       1  UNL1        0.0252
     31 H          30.3140    6.0910  116.3980 H       1  UNL1        0.1495
     32 H          29.7410    8.2120  118.0520 H       1  UNL1        0.0592
     33 H          28.5740    9.5620  116.5740 H       1  UNL1        0.0252
     34 H          27.2610    8.6960  117.3670 H       1  UNL1        0.0252
     35 H          30.2320   -6.7440  128.7140 H       1  UNL1        0.0272
     36 H          29.1590   -6.1710  130.0030 H       1  UNL1        0.0272
     37 H          30.9150   -6.1990  130.2570 H       1  UNL1        0.0272
     38 H          33.0690    9.0910  114.2370 H       1  UNL1        0.0252
     39 H          32.9460    7.1090  115.5800 H       1  UNL1        0.0594
     40 H          31.8540    8.4940  113.1080 H       1  UNL1        0.0252
     41 H          33.4350    7.6970  113.2070 H       1  UNL1        0.0252
     42 H          26.4970    3.6530  116.0170 H       1  UNL1        0.0314
     43 H          26.7200    5.0920  119.5630 H       1  UNL1        0.0616
     44 H          24.8090    5.0980  118.1250 H       1  UNL1        0.0292
     45 H          27.6480    5.7100  115.6040 H       1  UNL1        0.0467
     46 H          24.1520    5.6120  115.7590 H       1  UNL1        0.0233
     47 H          25.0560    4.8860  114.4200 H       1  UNL1        0.0233
     48 H          25.1840    3.3640  118.0490 H       1  UNL1        0.0292
     49 H          26.3210    6.6750  116.3120 H       1  UNL1        0.0467
     50 H          24.0840    3.8630  115.4920 H       1  UNL1        0.0233
     51 C          31.0930    0.4840  123.7810 C.2     1  UNL1        0.2375
     52 C          31.0240   -0.9300  124.2270 C.2     1  UNL1        0.0001
     53 C          30.8000   -1.2310  125.5140 C.2     1  UNL1       -0.0569
     54 C          30.7180   -2.5960  125.9890 C.2     1  UNL1       -0.0616
     55 C          30.5080   -2.9130  127.2750 C.2     1  UNL1       -0.0621
     56 C          30.4230   -4.2800  127.7380 C.2     1  UNL1       -0.0659
     57 C          30.2220   -4.6040  129.0230 C.2     1  UNL1       -0.0871
     58 C          30.1280   -6.0110  129.5200 C.3     1  UNL1       -0.0465
     59 O          30.9020    1.4350  124.5260 O.2     1  UNL1       -0.2708
     60 N          31.4010    0.5980  122.4550 N.am    1  UNL1       -0.3002
     61 C          31.5040    1.8850  121.7620 C.3     1  UNL1        0.1036
     62 C          31.4420    1.5340  120.2640 C.2     1  UNL1        0.2344
     63 O          31.8570    0.4520  119.8400 O.2     1  UNL1       -0.2738
     64 C          32.8220    2.5980  122.1060 C.3     1  UNL1       -0.0006
     65 C          33.0450    3.9050  121.3790 C.ar    1  UNL1       -0.0451
     66 C          34.1760    4.0760  120.5680 C.ar    1  UNL1       -0.0585
     67 C          32.1350    4.9630  121.5030 C.ar    1  UNL1       -0.0585
     68 C          34.3790    5.2710  119.8760 C.ar    1  UNL1       -0.0615
     69 C          32.3300    6.1490  120.7950 C.ar    1  UNL1       -0.0615
     70 C          33.4520    6.3040  119.9830 C.ar    1  UNL1       -0.0617
     71 N          30.9090    2.4910  119.4370 N.am    1  UNL1       -0.2997
     72 C          30.7700    2.2660  118.0030 C.3     1  UNL1        0.1340
     73 C          31.3170    3.4970  117.2650 C.2     1  UNL1        0.2399
     74 O          30.6870    4.5580  117.2010 O.2     1  UNL1       -0.2734
     75 C          29.3130    1.9870  117.6050 C.3     1  UNL1        0.1193
     76 O          28.5010    3.1720  117.6480 O.3     1  UNL1       -0.4610
     77 N          32.5800    3.4410  116.7320 N.am    1  UNL1       -0.2883
     78 C          33.0980    4.6050  116.0190 C.3     1  UNL1        0.1025
     79 C          32.3290    4.7080  114.6750 C.2     1  UNL1        0.2365
     80 O          32.1860    3.7030  113.9670 O.2     1  UNL1       -0.2735
     81 C          34.5800    4.3070  115.8260 C.3     1  UNL1       -0.0243
     82 C          34.6550    2.7820  115.8380 C.3     1  UNL1       -0.0350
     83 C          33.5530    2.3660  116.8030 C.3     1  UNL1        0.0156
     84 N          31.7490    5.9220  114.3180 N.am    1  UNL1       -0.2917
     85 C          30.8140    5.9150  113.1990 C.3     1  UNL1        0.0040
     86 C          32.1170    7.2390  114.8810 C.3     1  UNL1        0.0991
     87 C          32.6480    8.1820  113.7950 C.3     1  UNL1       -0.0379
     88 C          30.9940    7.9280  115.6990 C.2     1  UNL1        0.2339
     89 O          30.9770    9.1490  115.8560 O.2     1  UNL1       -0.2738
     90 N          30.1250    7.0970  116.3740 N.am    1  UNL1       -0.3027
     91 C          29.1560    7.6130  117.3390 C.3     1  UNL1        0.0968
     92 C          28.5210    6.4900  118.2070 C.2     1  UNL1        0.2363
     93 O          28.9640    6.2700  119.3420 O.2     1  UNL1       -0.2736
     94 C          28.1360    8.5690  116.7220 C.3     1  UNL1       -0.0381
     95 C          27.6980    3.3790  118.7220 C.2     1  UNL1        0.3279
     96 N          27.5090    5.6990  117.7050 N.am    1  UNL1       -0.2862
     97 O          27.5230    2.5680  119.6230 O.2     1  UNL1       -0.2487
     98 C          26.8860    4.6790  118.5620 C.3     1  UNL1        0.1233
     99 C          25.5740    4.3650  117.8380 C.3     1  UNL1       -0.0199
    100 C          26.8880    5.7430  116.3900 C.3     1  UNL1        0.0182
    101 C          24.7400    4.7390  115.4580 C.3     1  UNL1       -0.0609
    102 C          25.9460    4.5380  116.3590 C.3     1  UNL1       -0.0258
@<TRIPOS>BOND
     1     8    85    1
     2     7    85    1
     3    40    87    1
     4    85     9    1
     5    85    84    1
     6    41    87    1
     7    87    38    1
     8    87    86    1
     9    80    79    2
    10    84    79   am
    11    84    86    1
    12    47   101    1
    13    79    78    1
    14    29    82    1
    15    86    39    1
    16    86    88    1
    17    28    81    1
    18   101    50    1
    19   101    46    1
    20   101   102    1
    21    45   100    1
    22    88    89    2
    23    88    90   am
    24    30    94    1
    25    81    82    1
    26    81    78    1
    27    81    25    1
    28    82    26    1
    29    82    83    1
    30    42   102    1
    31    78    24    1
    32    78    77    1
    33    49   100    1
    34   102   100    1
    35   102    99    1
    36    90    31    1
    37    90    91    1
    38   100    96    1
    39    23    83    1
    40    22    75    1
    41    33    94    1
    42    94    91    1
    43    94    34    1
    44    77    83    1
    45    77    73   am
    46    83    27    1
    47    74    73    2
    48    73    72    1
    49    91    32    1
    50    91    92    1
    51    75    76    1
    52    75    72    1
    53    75    19    1
    54    76    95    1
    55    96    92   am
    56    96    98    1
    57    21    72    1
    58    99    48    1
    59    99    44    1
    60    99    98    1
    61    72    71    1
    62    92    93    2
    63    98    95    1
    64    98    43    1
    65    95    97    2
    66    16    68    1
    67    71    20    1
    68    71    62   am
    69    10    70    1
    70    63    62    2
    71    68    70   ar
    72    68    66   ar
    73    70    69   ar
    74    62    61    1
    75    14    66    1
    76    66    65   ar
    77    69    17    1
    78    69    67   ar
    79    65    67   ar
    80    65    64    1
    81    67    15    1
    82    61    12    1
    83    61    64    1
    84    61    60    1
    85    11    60    1
    86    13    64    1
    87    64    18    1
    88    60    51   am
    89     1    52    1
    90    51    52    1
    91    51    59    2
    92    52    53    2
    93     3    54    1
    94    53    54    1
    95    53     2    1
    96    54    55    2
    97     5    56    1
    98    55    56    1
    99    55     4    1
   100    56    57    2
   101    35    58    1
   102    57    58    1
   103    57     6    1
   104    58    36    1
   105    58    37    1
