@<TRIPOS>MOLECULE
139.93169
 102 105 0 0 0
SMALL
GASTEIGER

@<TRIPOS>ATOM
      1 H          30.8780    1.9550  122.0120 H       1  UNL1        0.0669
      2 H          30.2150    0.6780  119.2850 H       1  UNL1        0.0619
      3 H          32.5650    2.4820  120.2580 H       1  UNL1        0.0618
      4 H          31.7790    1.3230  117.5190 H       1  UNL1        0.0617
      5 H          34.1560    3.0900  118.4880 H       1  UNL1        0.0614
      6 H          33.3090    2.0060  115.7390 H       1  UNL1        0.0569
      7 H          24.8170    5.0920  114.6620 H       1  UNL1        0.0429
      8 H          25.9890    4.1610  113.7230 H       1  UNL1        0.0429
      9 H          26.5210    5.0870  115.1560 H       1  UNL1        0.0429
     10 H          31.1700   -2.2950  127.2840 H       1  UNL1        0.0618
     11 H          29.1050    1.8160  123.4110 H       1  UNL1        0.1498
     12 H          27.1770   -0.4060  123.0760 H       1  UNL1        0.0598
     13 H          26.3290    0.3310  125.3330 H       1  UNL1        0.0336
     14 H          27.5700   -2.0580  124.9640 H       1  UNL1        0.0620
     15 H          29.4460    1.5410  126.4410 H       1  UNL1        0.0620
     16 H          29.3450   -3.4020  126.0210 H       1  UNL1        0.0618
     17 H          31.2110    0.1760  127.4910 H       1  UNL1        0.0618
     18 H          27.3920    1.7210  125.2930 H       1  UNL1        0.0336
     19 H          25.5930    4.3990  119.7690 H       1  UNL1        0.0721
     20 H          26.8140    0.9530  120.9390 H       1  UNL1        0.1496
     21 H          24.3850    2.6270  121.2470 H       1  UNL1        0.0629
     22 H          27.1090    3.5500  120.2420 H       1  UNL1        0.0721
     23 H          22.8340    3.5190  119.8250 H       1  UNL1        0.0465
     24 H          24.4130    1.2020  116.8290 H       1  UNL1        0.0597
     25 H          22.0940    0.9300  117.0320 H       1  UNL1        0.0288
     26 H          20.7550    2.4530  118.3100 H       1  UNL1        0.0281
     27 H          22.4220    1.7870  119.8890 H       1  UNL1        0.0465
     28 H          22.0830    2.3350  115.9480 H       1  UNL1        0.0288
     29 H          21.7060    3.8450  117.7890 H       1  UNL1        0.0281
     30 H          29.0230    5.9800  116.3540 H       1  UNL1        0.0252
     31 H          27.0110    3.6550  117.6330 H       1  UNL1        0.1495
     32 H          29.7660    3.4370  117.8730 H       1  UNL1        0.0592
     33 H          30.2230    4.7660  115.9370 H       1  UNL1        0.0252
     34 H          30.5090    5.8410  117.3100 H       1  UNL1        0.0252
     35 H          35.6830    3.7510  116.7260 H       1  UNL1        0.0272
     36 H          34.8310    3.9710  115.1870 H       1  UNL1        0.0272
     37 H          35.7930    2.5070  115.4680 H       1  UNL1        0.0272
     38 H          27.2980    0.6800  114.2820 H       1  UNL1        0.0252
     39 H          26.3130    1.4970  116.3140 H       1  UNL1        0.0594
     40 H          27.0140    2.1960  113.4330 H       1  UNL1        0.0252
     41 H          25.6380    1.1830  113.9100 H       1  UNL1        0.0252
     42 H          25.0960    6.6650  119.3800 H       1  UNL1        0.0314
     43 H          28.5620    6.6880  120.9680 H       1  UNL1        0.0616
     44 H          27.4650    8.4870  120.0220 H       1  UNL1        0.0292
     45 H          26.4210    5.6940  117.6380 H       1  UNL1        0.0467
     46 H          26.2450    9.1130  117.9260 H       1  UNL1        0.0233
     47 H          24.8760    8.1290  117.3810 H       1  UNL1        0.0233
     48 H          26.1330    8.0360  121.0990 H       1  UNL1        0.0292
     49 H          27.5940    7.0310  117.6550 H       1  UNL1        0.0467
     50 H          24.7510    9.0730  118.8770 H       1  UNL1        0.0233
     51 C          29.0800    0.7140  121.6610 C.2     1  UNL1        0.2375
     52 C          30.3490    1.3700  121.2710 C.2     1  UNL1        0.0001
     53 C          30.7860    1.2600  120.0080 C.2     1  UNL1       -0.0569
     54 C          31.9840    1.9160  119.5320 C.2     1  UNL1       -0.0616
     55 C          32.3710    1.8730  118.2490 C.2     1  UNL1       -0.0621
     56 C          33.5510    2.5510  117.7620 C.2     1  UNL1       -0.0659
     57 C          33.9130    2.5390  116.4710 C.2     1  UNL1       -0.0871
     58 C          35.1240    3.2330  115.9400 C.3     1  UNL1       -0.0465
     59 O          28.4630   -0.0470  120.9240 O.2     1  UNL1       -0.2708
     60 N          28.6060    1.1130  122.8810 N.am    1  UNL1       -0.3002
     61 C          27.3280    0.6240  123.4230 C.3     1  UNL1        0.1036
     62 C          26.1720    1.4720  122.8390 C.2     1  UNL1        0.2344
     63 O          25.2900    1.9820  123.5260 O.2     1  UNL1       -0.2738
     64 C          27.3020    0.6780  124.9590 C.3     1  UNL1       -0.0006
     65 C          28.3810   -0.1550  125.6130 C.ar    1  UNL1       -0.0451
     66 C          28.3640   -1.5530  125.5100 C.ar    1  UNL1       -0.0585
     67 C          29.4140    0.4590  126.3350 C.ar    1  UNL1       -0.0585
     68 C          29.3660   -2.3190  126.1080 C.ar    1  UNL1       -0.0615
     69 C          30.4140   -0.3090  126.9330 C.ar    1  UNL1       -0.0615
     70 C          30.3910   -1.6970  126.8180 C.ar    1  UNL1       -0.0617
     71 N          26.1490    1.5280  121.4650 N.am    1  UNL1       -0.2997
     72 C          25.3330    2.4800  120.7270 C.3     1  UNL1        0.1340
     73 C          25.1790    1.9830  119.2860 C.2     1  UNL1        0.2399
     74 O          26.1500    1.5210  118.6790 O.2     1  UNL1       -0.2734
     75 C          26.0930    3.8070  120.5400 C.3     1  UNL1        0.1193
     76 O          26.1560    4.5920  121.7300 O.3     1  UNL1       -0.4610
     77 N          24.0050    2.2440  118.6280 N.am    1  UNL1       -0.2883
     78 C          23.9040    2.1020  117.1760 C.3     1  UNL1        0.1025
     79 C          24.4640    3.3910  116.5120 C.2     1  UNL1        0.2365
     80 O          23.9970    4.4960  116.8180 O.2     1  UNL1       -0.2735
     81 C          22.3970    1.9800  116.9340 C.3     1  UNL1       -0.0243
     82 C          21.7680    2.7870  118.0670 C.3     1  UNL1       -0.0350
     83 C          22.7310    2.6070  119.2310 C.3     1  UNL1        0.0156
     84 N          25.4920    3.3060  115.5810 N.am    1  UNL1       -0.2917
     85 C          25.7190    4.4760  114.7340 C.3     1  UNL1        0.0040
     86 C          26.5450    2.2550  115.5680 C.3     1  UNL1        0.0991
     87 C          26.6250    1.5430  114.2210 C.3     1  UNL1       -0.0379
     88 C          27.9250    2.8340  115.9990 C.2     1  UNL1        0.2339
     89 O          28.9820    2.5060  115.4670 O.2     1  UNL1       -0.2738
     90 N          27.8750    3.6590  117.1070 N.am    1  UNL1       -0.3027
     91 C          29.0650    4.2620  117.7050 C.3     1  UNL1        0.0968
     92 C          28.8020    4.8910  119.0990 C.2     1  UNL1        0.2363
     93 O          29.5680    4.6470  120.0390 O.2     1  UNL1       -0.2736
     94 C          29.7390    5.2710  116.7800 C.3     1  UNL1       -0.0381
     95 C          26.9020    5.7150  121.8380 C.2     1  UNL1        0.3279
     96 N          27.7430    5.7640  119.2940 N.am    1  UNL1       -0.2862
     97 O          26.9620    6.2740  122.9380 O.2     1  UNL1       -0.2487
     98 C          27.5630    6.4020  120.6120 C.3     1  UNL1        0.1233
     99 C          26.7670    7.6790  120.2810 C.3     1  UNL1       -0.0199
    100 C          26.9310    6.4180  118.2730 C.3     1  UNL1        0.0182
    101 C          25.4280    8.4670  118.2650 C.3     1  UNL1       -0.0609
    102 C          25.9460    7.2790  119.0560 C.3     1  UNL1       -0.0258
@<TRIPOS>BOND
     1    40    87    1
     2     8    85    1
     3    41    87    1
     4    87    38    1
     5    87    86    1
     6     7    85    1
     7    85     9    1
     8    85    84    1
     9    36    58    1
    10    89    88    2
    11    37    58    1
    12    86    84    1
    13    86    88    1
    14    86    39    1
    15    84    79   am
    16     6    57    1
    17    33    94    1
    18    58    57    1
    19    58    35    1
    20    28    81    1
    21    88    90   am
    22    30    94    1
    23    57    56    2
    24    79    80    2
    25    79    78    1
    26    94    34    1
    27    94    91    1
    28    24    78    1
    29    81    25    1
    30    81    78    1
    31    81    82    1
    32    90    31    1
    33    90    91    1
    34    78    77    1
    35    47   101    1
    36     4    55    1
    37    45   100    1
    38    49   100    1
    39    91    32    1
    40    91    92    1
    41    56    55    1
    42    56     5    1
    43    29    82    1
    44    46   101    1
    45    82    26    1
    46    82    83    1
    47    55    54    2
    48   101    50    1
    49   101   102    1
    50   100   102    1
    51   100    96    1
    52    77    83    1
    53    77    73   am
    54    74    73    2
    55   102    42    1
    56   102    99    1
    57    92    96   am
    58    92    93    2
    59    83    23    1
    60    83    27    1
    61     2    53    1
    62    73    72    1
    63    96    98    1
    64    54    53    1
    65    54     3    1
    66    19    75    1
    67    53    52    2
    68    44    99    1
    69    22    75    1
    70    99    98    1
    71    99    48    1
    72    75    72    1
    73    75    76    1
    74    98    43    1
    75    98    95    1
    76    72    21    1
    77    72    71    1
    78    59    51    2
    79    20    71    1
    80    52    51    1
    81    52     1    1
    82    71    62   am
    83    51    60   am
    84    76    95    1
    85    95    97    2
    86    62    61    1
    87    62    63    2
    88    60    11    1
    89    60    61    1
    90    12    61    1
    91    61    64    1
    92    64    18    1
    93    64    13    1
    94    64    65    1
    95    14    66    1
    96    66    65   ar
    97    66    68   ar
    98    65    67   ar
    99    16    68    1
   100    68    70   ar
   101    67    15    1
   102    67    69   ar
   103    70    69   ar
   104    70    10    1
   105    69    17    1
