@<TRIPOS>MOLECULE
137.25541
 102 105 0 0 0
SMALL
GASTEIGER

@<TRIPOS>ATOM
      1 H          33.9060    2.8670  114.5690 H       1  UNL1        0.0669
      2 H          35.8710    4.7970  115.9480 H       1  UNL1        0.0619
      3 H          36.2020    2.7060  113.6560 H       1  UNL1        0.0618
      4 H          38.1780    4.5470  115.1250 H       1  UNL1        0.0617
      5 H          38.4870    2.4770  112.8150 H       1  UNL1        0.0614
      6 H          40.4820    4.2680  114.3180 H       1  UNL1        0.0569
      7 H          24.0380    0.8570  124.3990 H       1  UNL1        0.0429
      8 H          25.6600    0.7830  125.1210 H       1  UNL1        0.0429
      9 H          24.9040   -0.6840  124.4280 H       1  UNL1        0.0429
     10 H          26.5970    6.8300  120.2270 H       1  UNL1        0.0618
     11 H          31.9370    2.7540  115.6430 H       1  UNL1        0.1498
     12 H          31.4860    4.2340  118.0930 H       1  UNL1        0.0598
     13 H          29.6500    4.7480  115.6630 H       1  UNL1        0.0336
     14 H          27.4420    4.7230  116.5870 H       1  UNL1        0.0620
     15 H          30.6330    6.6390  118.7810 H       1  UNL1        0.0620
     16 H          25.8240    5.5050  118.2800 H       1  UNL1        0.0618
     17 H          28.9960    7.4020  120.4650 H       1  UNL1        0.0618
     18 H          30.8040    5.9200  116.2530 H       1  UNL1        0.0336
     19 H          29.6240    0.3400  120.5290 H       1  UNL1        0.0721
     20 H          29.5280    3.3970  119.1950 H       1  UNL1        0.1496
     21 H          28.1210    1.1690  118.0110 H       1  UNL1        0.0629
     22 H          30.5190    0.3310  118.9930 H       1  UNL1        0.0721
     23 H          26.3250   -0.3110  118.9270 H       1  UNL1        0.0465
     24 H          25.5970    3.2050  120.8100 H       1  UNL1        0.0597
     25 H          23.8760    2.5840  119.4210 H       1  UNL1        0.0288
     26 H          23.6800    0.3140  118.6120 H       1  UNL1        0.0281
     27 H          25.8600    1.1620  118.0450 H       1  UNL1        0.0465
     28 H          23.2250    1.7370  120.8340 H       1  UNL1        0.0288
     29 H          24.2540   -0.3420  120.1500 H       1  UNL1        0.0281
     30 H          24.9500   -4.1490  121.2680 H       1  UNL1        0.0252
     31 H          28.1220   -1.8720  121.3020 H       1  UNL1        0.1495
     32 H          27.9300   -4.0270  120.6530 H       1  UNL1        0.0592
     33 H          26.2440   -4.6140  122.3890 H       1  UNL1        0.0252
     34 H          26.0300   -5.4660  120.8490 H       1  UNL1        0.0252
     35 H          40.7500    2.2080  112.0080 H       1  UNL1        0.0272
     36 H          41.9240    2.4210  113.3180 H       1  UNL1        0.0272
     37 H          41.6680    3.7190  112.1350 H       1  UNL1        0.0272
     38 H          28.6290   -1.0070  123.3490 H       1  UNL1        0.0252
     39 H          27.3260    0.3100  121.8370 H       1  UNL1        0.0594
     40 H          27.2990   -1.1500  124.4940 H       1  UNL1        0.0252
     41 H          28.0700    0.4260  124.2200 H       1  UNL1        0.0252
     42 H          28.7900   -1.5570  116.2140 H       1  UNL1        0.0314
     43 H          29.1980   -4.1090  119.0290 H       1  UNL1        0.0616
     44 H          29.3820   -4.5190  116.6990 H       1  UNL1        0.0292
     45 H          26.5140   -1.9620  116.7760 H       1  UNL1        0.0467
     46 H          28.2000   -4.0640  114.5430 H       1  UNL1        0.0233
     47 H          27.7450   -2.4050  114.1210 H       1  UNL1        0.0233
     48 H          30.5180   -3.1610  116.8100 H       1  UNL1        0.0292
     49 H          26.6360   -3.7100  116.4720 H       1  UNL1        0.0467
     50 H          29.4560   -2.8610  114.2080 H       1  UNL1        0.0233
     51 C          33.2950    4.2360  116.1920 C.2     1  UNL1        0.2375
     52 C          34.2630    3.6340  115.2430 C.2     1  UNL1        0.0001
     53 C          35.5440    4.0280  115.2490 C.2     1  UNL1       -0.0569
     54 C          36.5390    3.4560  114.3690 C.2     1  UNL1       -0.0616
     55 C          37.8340    3.8020  114.4100 C.2     1  UNL1       -0.0621
     56 C          38.8270    3.2140  113.5400 C.2     1  UNL1       -0.0659
     57 C          40.1280    3.5350  113.5970 C.2     1  UNL1       -0.0871
     58 C          41.1710    2.9330  112.7110 C.3     1  UNL1       -0.0465
     59 O          33.5540    5.2060  116.8920 O.2     1  UNL1       -0.2708
     60 N          32.0980    3.5750  116.2160 N.am    1  UNL1       -0.3002
     61 C          31.0270    3.9460  117.1390 C.3     1  UNL1        0.1036
     62 C          30.1920    2.6710  117.3570 C.2     1  UNL1        0.2344
     63 O          30.1360    1.7680  116.5210 O.2     1  UNL1       -0.2738
     64 C          30.1660    5.0850  116.5710 C.3     1  UNL1       -0.0006
     65 C          29.1590    5.6160  117.5640 C.ar    1  UNL1       -0.0451
     66 C          27.7970    5.3110  117.4300 C.ar    1  UNL1       -0.0585
     67 C          29.5820    6.3800  118.6600 C.ar    1  UNL1       -0.0585
     68 C          26.8780    5.7470  118.3860 C.ar    1  UNL1       -0.0615
     69 C          28.6610    6.8150  119.6140 C.ar    1  UNL1       -0.0615
     70 C          27.3110    6.4950  119.4790 C.ar    1  UNL1       -0.0617
     71 N          29.5110    2.6100  118.5460 N.am    1  UNL1       -0.2997
     72 C          28.6740    1.4670  118.9060 C.3     1  UNL1        0.1340
     73 C          27.7180    1.9590  120.0050 C.2     1  UNL1        0.2399
     74 O          28.1270    2.7320  120.8780 O.2     1  UNL1       -0.2734
     75 C          29.5180    0.3000  119.4390 C.3     1  UNL1        0.1193
     76 O          28.8750   -0.9420  119.0960 O.3     1  UNL1       -0.4610
     77 N          26.4230    1.4850  120.0190 N.am    1  UNL1       -0.2883
     78 C          25.4190    2.1220  120.8740 C.3     1  UNL1        0.1025
     79 C          25.2410    1.8620  122.3980 C.2     1  UNL1        0.2365
     80 O          24.5340    2.6770  123.0160 O.2     1  UNL1       -0.2735
     81 C          24.0880    1.8060  120.1650 C.3     1  UNL1       -0.0243
     82 C          24.3600    0.4910  119.4510 C.3     1  UNL1       -0.0350
     83 C          25.8010    0.6410  119.0080 C.3     1  UNL1        0.0156
     84 N          25.6590    0.7040  123.0350 N.am    1  UNL1       -0.2917
     85 C          25.0270    0.3970  124.3160 C.3     1  UNL1        0.0040
     86 C          26.7460   -0.1920  122.6030 C.3     1  UNL1        0.0991
     87 C          27.7390   -0.4970  123.7320 C.3     1  UNL1       -0.0379
     88 C          26.2150   -1.5090  121.9810 C.2     1  UNL1        0.2339
     89 O          25.0420   -1.8570  122.0590 O.2     1  UNL1       -0.2738
     90 N          27.1930   -2.2660  121.3640 N.am    1  UNL1       -0.3027
     91 C          26.9610   -3.5240  120.6490 C.3     1  UNL1        0.0968
     92 C          26.5330   -3.2350  119.1890 C.2     1  UNL1        0.2363
     93 O          25.3540   -3.0400  118.8850 O.2     1  UNL1       -0.2736
     94 C          25.9900   -4.4840  121.3320 C.3     1  UNL1       -0.0381
     95 C          29.6950   -2.0250  119.0040 C.2     1  UNL1        0.3279
     96 N          27.5280   -3.0880  118.2370 N.am    1  UNL1       -0.2862
     97 O          30.8750   -2.0290  119.3300 O.2     1  UNL1       -0.2487
     98 C          28.9800   -3.2440  118.3990 C.3     1  UNL1        0.1233
     99 C          29.4760   -3.4590  116.9660 C.3     1  UNL1       -0.0199
    100 C          27.1750   -2.8320  116.8480 C.3     1  UNL1        0.0182
    101 C          28.4740   -3.0110  114.6690 C.3     1  UNL1       -0.0609
    102 C          28.5060   -2.6140  116.1340 C.3     1  UNL1       -0.0258
@<TRIPOS>BOND
     1    35    58    1
     2    37    58    1
     3    58    36    1
     4    58    57    1
     5     5    56    1
     6    56    57    2
     7    56    55    1
     8    57     6    1
     9     3    54    1
    10    47   101    1
    11    50   101    1
    12    54    55    2
    13    54    53    1
    14    55     4    1
    15    46   101    1
    16     1    52    1
    17   101   102    1
    18    52    53    2
    19    52    51    1
    20    53     2    1
    21    11    60    1
    22    13    64    1
    23   102    42    1
    24   102   100    1
    25   102    99    1
    26    51    60   am
    27    51    59    2
    28    60    61    1
    29    18    64    1
    30    49   100    1
    31    63    62    2
    32    64    61    1
    33    64    65    1
    34    14    66    1
    35    44    99    1
    36    45   100    1
    37    48    99    1
    38   100    96    1
    39    99    98    1
    40    61    62    1
    41    61    12    1
    42    62    71   am
    43    66    65   ar
    44    66    68   ar
    45    65    67   ar
    46    21    72    1
    47    27    83    1
    48    96    98    1
    49    96    92   am
    50    16    68    1
    51    68    70   ar
    52    98    95    1
    53    98    43    1
    54    71    72    1
    55    71    20    1
    56    26    82    1
    57    67    15    1
    58    67    69   ar
    59    93    92    2
    60    72    75    1
    61    72    73    1
    62    23    83    1
    63    22    75    1
    64    95    76    1
    65    95    97    2
    66    83    82    1
    67    83    77    1
    68    76    75    1
    69    92    91    1
    70    25    81    1
    71    75    19    1
    72    82    29    1
    73    82    81    1
    74    70    69   ar
    75    70    10    1
    76    69    17    1
    77    73    77   am
    78    73    74    2
    79    77    78    1
    80    81    28    1
    81    81    78    1
    82    91    32    1
    83    91    94    1
    84    91    90    1
    85    24    78    1
    86    34    94    1
    87    78    79    1
    88    30    94    1
    89    31    90    1
    90    94    33    1
    91    90    88   am
    92    39    86    1
    93    88    89    2
    94    88    86    1
    95    79    80    2
    96    79    84   am
    97    86    84    1
    98    86    87    1
    99    84    85    1
   100    38    87    1
   101    87    41    1
   102    87    40    1
   103    85     7    1
   104    85     9    1
   105    85     8    1
