@<TRIPOS>MOLECULE
120.40615
 102 105 0 0 0
SMALL
GASTEIGER

@<TRIPOS>ATOM
      1 H          33.2940    1.3420  123.4890 H       1  UNL1        0.0669
      2 H          30.8140    2.9500  124.3620 H       1  UNL1        0.0619
      3 H          32.3100    0.5200  125.6220 H       1  UNL1        0.0618
      4 H          29.8150    2.1190  126.4400 H       1  UNL1        0.0617
      5 H          31.3120   -0.3040  127.7060 H       1  UNL1        0.0614
      6 H          28.8060    1.2830  128.5120 H       1  UNL1        0.0569
      7 H          33.9380    4.8970  116.4940 H       1  UNL1        0.0429
      8 H          33.9790    5.0450  114.7310 H       1  UNL1        0.0429
      9 H          34.2490    3.4590  115.5120 H       1  UNL1        0.0429
     10 H          38.8250    5.3890  122.8290 H       1  UNL1        0.0618
     11 H          33.9830    1.9190  121.4410 H       1  UNL1        0.1498
     12 H          33.2580    4.5880  120.3540 H       1  UNL1        0.0598
     13 H          35.0050    4.0680  118.6170 H       1  UNL1        0.0336
     14 H          35.2030    6.0250  120.6220 H       1  UNL1        0.0620
     15 H          37.1630    2.1770  120.5220 H       1  UNL1        0.0620
     16 H          36.9650    6.8690  122.1220 H       1  UNL1        0.0618
     17 H          38.9180    3.0450  122.0210 H       1  UNL1        0.0618
     18 H          35.2060    2.4590  119.2780 H       1  UNL1        0.0336
     19 H          28.3910    1.3450  119.0830 H       1  UNL1        0.0721
     20 H          31.0200    3.6340  120.3680 H       1  UNL1        0.1496
     21 H          30.4370    2.3650  117.7160 H       1  UNL1        0.0629
     22 H          29.4670    1.4770  120.4710 H       1  UNL1        0.0721
     23 H          28.4380    6.4350  118.3990 H       1  UNL1        0.0465
     24 H          29.7010    3.4170  115.9560 H       1  UNL1        0.0597
     25 H          28.3520    4.9930  114.8460 H       1  UNL1        0.0288
     26 H          27.9910    7.1960  115.8020 H       1  UNL1        0.0281
     27 H          27.2760    5.5270  117.4020 H       1  UNL1        0.0465
     28 H          29.8970    5.8090  114.5310 H       1  UNL1        0.0288
     29 H          29.6300    7.2290  116.4760 H       1  UNL1        0.0281
     30 H          33.3550   -1.0380  114.4910 H       1  UNL1        0.0252
     31 H          32.9800    1.8560  116.2130 H       1  UNL1        0.1495
     32 H          31.2970   -0.2250  116.6160 H       1  UNL1        0.0592
     33 H          31.5980   -1.1160  114.3300 H       1  UNL1        0.0252
     34 H          32.4260   -2.1900  115.4620 H       1  UNL1        0.0252
     35 H          30.3200   -1.1290  129.7550 H       1  UNL1        0.0272
     36 H          28.5580   -0.9350  129.7390 H       1  UNL1        0.0272
     37 H          29.5660    0.1830  130.6790 H       1  UNL1        0.0272
     38 H          32.2380    2.6010  112.3290 H       1  UNL1        0.0252
     39 H          30.8160    3.6520  114.0090 H       1  UNL1        0.0594
     40 H          33.6580    2.7270  113.3620 H       1  UNL1        0.0252
     41 H          32.8840    4.1980  112.7380 H       1  UNL1        0.0252
     42 H          33.3610   -1.4580  121.2130 H       1  UNL1        0.0314
     43 H          31.1290   -1.7810  118.0640 H       1  UNL1        0.0616
     44 H          32.1310   -3.5120  119.3180 H       1  UNL1        0.0292
     45 H          34.7970   -0.6910  119.5280 H       1  UNL1        0.0467
     46 H          34.3600   -4.1700  120.1930 H       1  UNL1        0.0233
     47 H          35.2090   -3.1040  121.3250 H       1  UNL1        0.0233
     48 H          31.3360   -2.6420  120.6450 H       1  UNL1        0.0292
     49 H          34.8030   -2.2420  118.6610 H       1  UNL1        0.0467
     50 H          33.6690   -3.8480  121.7920 H       1  UNL1        0.0233
     51 C          32.4920    3.0400  122.3250 C.2     1  UNL1        0.2375
     52 C          32.5170    2.0950  123.4660 C.2     1  UNL1        0.0001
     53 C          31.5840    2.1810  124.4250 C.2     1  UNL1       -0.0569
     54 C          31.5370    1.2820  125.5580 C.2     1  UNL1       -0.0616
     55 C          30.5900    1.3570  126.5040 C.2     1  UNL1       -0.0621
     56 C          30.5380    0.4570  127.6340 C.2     1  UNL1       -0.0659
     57 C          29.5850    0.5260  128.5750 C.2     1  UNL1       -0.0871
     58 C          29.5090   -0.3940  129.7510 C.3     1  UNL1       -0.0465
     59 O          31.6740    3.9470  122.2210 O.2     1  UNL1       -0.2708
     60 N          33.4380    2.7660  121.3740 N.am    1  UNL1       -0.3002
     61 C          33.5460    3.5510  120.1410 C.3     1  UNL1        0.1036
     62 C          32.5310    2.9840  119.1270 C.2     1  UNL1        0.2344
     63 O          32.8570    2.4290  118.0800 O.2     1  UNL1       -0.2738
     64 C          34.9650    3.4960  119.5520 C.3     1  UNL1       -0.0006
     65 C          36.0400    4.0290  120.4740 C.ar    1  UNL1       -0.0451
     66 C          36.0060    5.3560  120.9260 C.ar    1  UNL1       -0.0585
     67 C          37.1020    3.2050  120.8720 C.ar    1  UNL1       -0.0585
     68 C          37.0040    5.8400  121.7730 C.ar    1  UNL1       -0.0615
     69 C          38.0990    3.6920  121.7180 C.ar    1  UNL1       -0.0615
     70 C          38.0490    5.0090  122.1710 C.ar    1  UNL1       -0.0617
     71 N          31.2170    3.1470  119.4900 N.am    1  UNL1       -0.2997
     72 C          30.0900    2.6510  118.7100 C.3     1  UNL1        0.1340
     73 C          29.0790    3.8030  118.6280 C.2     1  UNL1        0.2399
     74 O          28.3090    4.0280  119.5670 O.2     1  UNL1       -0.2734
     75 C          29.4440    1.4250  119.3760 C.3     1  UNL1        0.1193
     76 O          30.0640    0.2050  118.9030 O.3     1  UNL1       -0.4610
     77 N          29.1460    4.6480  117.5390 N.am    1  UNL1       -0.2883
     78 C          29.8790    4.4440  116.2810 C.3     1  UNL1        0.1025
     79 C          31.4030    4.7270  116.3850 C.2     1  UNL1        0.2365
     80 O          31.8350    5.5080  117.2380 O.2     1  UNL1       -0.2735
     81 C          29.2300    5.4490  115.3200 C.3     1  UNL1       -0.0243
     82 C          28.7800    6.5780  116.2400 C.3     1  UNL1       -0.0350
     83 C          28.3220    5.8420  117.4860 C.3     1  UNL1        0.0156
     84 N          32.2530    4.1180  115.4510 N.am    1  UNL1       -0.2917
     85 C          33.6840    4.3930  115.5590 C.3     1  UNL1        0.0040
     86 C          31.7730    3.2450  114.3500 C.3     1  UNL1        0.0991
     87 C          32.6950    3.1940  113.1300 C.3     1  UNL1       -0.0379
     88 C          31.4790    1.7960  114.8030 C.2     1  UNL1        0.2339
     89 O          30.5510    1.1590  114.3060 O.2     1  UNL1       -0.2738
     90 N          32.3830    1.2340  115.6650 N.am    1  UNL1       -0.3027
     91 C          32.2830   -0.1350  116.1580 C.3     1  UNL1        0.0968
     92 C          33.4170   -0.4010  117.1770 C.2     1  UNL1        0.2363
     93 O          34.5800   -0.0680  116.9230 O.2     1  UNL1       -0.2736
     94 C          32.4210   -1.1750  115.0470 C.3     1  UNL1       -0.0381
     95 C          31.1650   -0.2230  119.5820 C.2     1  UNL1        0.3279
     96 N          33.1150   -1.0830  118.3380 N.am    1  UNL1       -0.2862
     97 O          31.6230    0.3010  120.5890 O.2     1  UNL1       -0.2487
     98 C          31.7920   -1.4290  118.8600 C.3     1  UNL1        0.1233
     99 C          32.0870   -2.5550  119.8530 C.3     1  UNL1       -0.0199
    100 C          34.1760   -1.5400  119.2210 C.3     1  UNL1        0.0182
    101 C          34.2200   -3.3990  120.9590 C.3     1  UNL1       -0.0609
    102 C          33.4720   -2.1960  120.4090 C.3     1  UNL1       -0.0258
@<TRIPOS>BOND
     1    38    87    1
     2    41    87    1
     3    87    40    1
     4    87    86    1
     5    39    86    1
     6    89    88    2
     7    33    94    1
     8    86    88    1
     9    86    84    1
    10    30    94    1
    11    28    81    1
    12     8    85    1
    13    88    90   am
    14    25    81    1
    15    94    34    1
    16    94    91    1
    17    81    82    1
    18    81    78    1
    19    84    85    1
    20    84    79   am
    21     9    85    1
    22    85     7    1
    23    90    91    1
    24    90    31    1
    25    26    82    1
    26    24    78    1
    27    91    32    1
    28    91    92    1
    29    82    29    1
    30    82    83    1
    31    78    79    1
    32    78    77    1
    33    79    80    2
    34    93    92    2
    35    92    96   am
    36    27    83    1
    37    83    77    1
    38    83    23    1
    39    77    73   am
    40    21    72    1
    41    43    98    1
    42    63    62    2
    43    96    98    1
    44    96   100    1
    45    13    64    1
    46    73    72    1
    47    73    74    2
    48    49   100    1
    49    72    75    1
    50    72    71    1
    51    98    95    1
    52    98    99    1
    53    76    75    1
    54    76    95    1
    55    19    75    1
    56    62    71   am
    57    62    61    1
    58   100    45    1
    59   100   102    1
    60    18    64    1
    61    44    99    1
    62    75    22    1
    63    71    20    1
    64    64    61    1
    65    64    65    1
    66    95    97    2
    67    99   102    1
    68    99    48    1
    69    61    12    1
    70    61    60    1
    71    46   101    1
    72   102   101    1
    73   102    42    1
    74    65    67   ar
    75    65    66   ar
    76    15    67    1
    77    14    66    1
    78    67    69   ar
    79    66    68   ar
    80   101    47    1
    81   101    50    1
    82    60    11    1
    83    60    51   am
    84    69    17    1
    85    69    70   ar
    86    68    16    1
    87    68    70   ar
    88    70    10    1
    89    59    51    2
    90    51    52    1
    91    52     1    1
    92    52    53    2
    93     2    53    1
    94    53    54    1
    95    54     3    1
    96    54    55    2
    97     4    55    1
    98    55    56    1
    99    56     5    1
   100    56    57    2
   101     6    57    1
   102    57    58    1
   103    36    58    1
   104    58    35    1
   105    58    37    1
