@<TRIPOS>MOLECULE
126.21982
 102 105 0 0 0
SMALL
GASTEIGER

@<TRIPOS>ATOM
      1 H          22.3500   -1.0720  123.5490 H       1  UNL1        0.0669
      2 H          21.1100    1.6920  122.9830 H       1  UNL1        0.0619
      3 H          19.9730   -1.2030  122.7600 H       1  UNL1        0.0618
      4 H          18.8280    1.5830  122.1390 H       1  UNL1        0.0617
      5 H          17.6690   -1.2990  121.8970 H       1  UNL1        0.0614
      6 H          16.5520    1.4920  121.2510 H       1  UNL1        0.0569
      7 H          32.7450    4.3610  117.7590 H       1  UNL1        0.0429
      8 H          33.6130    4.9070  119.1960 H       1  UNL1        0.0429
      9 H          32.0800    5.6900  118.7220 H       1  UNL1        0.0429
     10 H          31.5950    2.5730  125.3110 H       1  UNL1        0.0618
     11 H          24.5920   -0.9000  123.7410 H       1  UNL1        0.1498
     12 H          25.7940    1.7620  124.3890 H       1  UNL1        0.0598
     13 H          27.0580   -1.0560  124.4550 H       1  UNL1        0.0336
     14 H          29.2090   -0.4740  123.4550 H       1  UNL1        0.0620
     15 H          27.5460    1.9780  126.5970 H       1  UNL1        0.0620
     16 H          31.3500    0.7380  123.6580 H       1  UNL1        0.0618
     17 H          29.6940    3.1810  126.7770 H       1  UNL1        0.0618
     18 H          26.4650   -0.2140  125.8640 H       1  UNL1        0.0336
     19 H          25.0290    3.4890  120.1850 H       1  UNL1        0.0721
     20 H          26.1770    2.8530  122.5440 H       1  UNL1        0.1496
     21 H          26.4740    1.3840  120.0260 H       1  UNL1        0.0629
     22 H          26.2020    3.4180  118.8770 H       1  UNL1        0.0721
     23 H          27.7370    0.9670  118.1920 H       1  UNL1        0.0465
     24 H          30.8780    1.5930  120.7390 H       1  UNL1        0.0597
     25 H          30.9730   -0.4670  119.7090 H       1  UNL1        0.0288
     26 H          29.6470   -0.9600  117.7580 H       1  UNL1        0.0281
     27 H          28.1260   -0.2190  119.4660 H       1  UNL1        0.0465
     28 H          31.8570    0.4240  118.4560 H       1  UNL1        0.0288
     29 H          29.8450    0.6790  117.1260 H       1  UNL1        0.0281
     30 H          31.2070    8.3180  119.7950 H       1  UNL1        0.0252
     31 H          30.0730    5.3810  119.8820 H       1  UNL1        0.1495
     32 H          29.4040    7.2060  122.0030 H       1  UNL1        0.0592
     33 H          31.5540    8.2830  121.5250 H       1  UNL1        0.0252
     34 H          30.2550    9.3130  120.9080 H       1  UNL1        0.0252
     35 H          15.4170   -1.3890  121.0050 H       1  UNL1        0.0272
     36 H          15.1290   -0.0790  119.8460 H       1  UNL1        0.0272
     37 H          14.4770    0.0340  121.4930 H       1  UNL1        0.0272
     38 H          33.2530    3.7520  122.7570 H       1  UNL1        0.0252
     39 H          31.2400    3.2870  121.5620 H       1  UNL1        0.0594
     40 H          33.9900    4.5630  121.3790 H       1  UNL1        0.0252
     41 H          33.7010    2.8130  121.3230 H       1  UNL1        0.0252
     42 H          24.4320    6.7590  120.1800 H       1  UNL1        0.0314
     43 H          27.4800    6.8800  122.5090 H       1  UNL1        0.0616
     44 H          25.6950    8.5060  122.3500 H       1  UNL1        0.0292
     45 H          26.1320    7.3420  118.6910 H       1  UNL1        0.0467
     46 H          24.3820    9.7890  120.6580 H       1  UNL1        0.0233
     47 H          23.5810    8.9300  119.3310 H       1  UNL1        0.0233
     48 H          24.7640    7.0090  122.5630 H       1  UNL1        0.0292
     49 H          26.3940    8.9420  119.4210 H       1  UNL1        0.0467
     50 H          23.0630    8.6590  121.0050 H       1  UNL1        0.0233
     51 C          23.4590    0.8320  123.7830 C.2     1  UNL1        0.2375
     52 C          22.2690    0.0040  123.4660 C.2     1  UNL1        0.0001
     53 C          21.1420    0.6050  123.0590 C.2     1  UNL1       -0.0569
     54 C          19.9490   -0.1190  122.6800 C.2     1  UNL1       -0.0616
     55 C          18.8480    0.4980  122.2240 C.2     1  UNL1       -0.0621
     56 C          17.6590   -0.2140  121.8150 C.2     1  UNL1       -0.0659
     57 C          16.5700    0.4080  121.3390 C.2     1  UNL1       -0.0871
     58 C          15.3320   -0.3030  120.8980 C.3     1  UNL1       -0.0465
     59 O          23.4180    2.0530  123.8460 O.2     1  UNL1       -0.2708
     60 N          24.6030    0.0910  123.9420 N.am    1  UNL1       -0.3002
     61 C          25.9130    0.7440  124.0010 C.3     1  UNL1        0.1036
     62 C          26.3950    0.7870  122.5410 C.2     1  UNL1        0.2344
     63 O          26.6610   -0.2330  121.9020 O.2     1  UNL1       -0.2738
     64 C          26.8960   -0.0510  124.8670 C.3     1  UNL1       -0.0006
     65 C          28.2230    0.6540  125.0210 C.ar    1  UNL1       -0.0451
     66 C          29.3060    0.3170  124.1970 C.ar    1  UNL1       -0.0585
     67 C          28.3740    1.6890  125.9530 C.ar    1  UNL1       -0.0585
     68 C          30.5170    1.0020  124.3040 C.ar    1  UNL1       -0.0615
     69 C          29.5860    2.3730  126.0570 C.ar    1  UNL1       -0.0615
     70 C          30.6560    2.0310  125.2330 C.ar    1  UNL1       -0.0617
     71 N          26.3830    2.0330  121.9680 N.am    1  UNL1       -0.2997
     72 C          26.7920    2.2640  120.5900 C.3     1  UNL1        0.1340
     73 C          28.3200    2.4250  120.5570 C.2     1  UNL1        0.2399
     74 O          28.8850    3.2430  121.2890 O.2     1  UNL1       -0.2734
     75 C          26.1050    3.4880  119.9670 C.3     1  UNL1        0.1193
     76 O          26.6490    4.7790  120.3070 O.3     1  UNL1       -0.4610
     77 N          29.0460    1.6250  119.7050 N.am    1  UNL1       -0.2883
     78 C          30.5090    1.6480  119.7160 C.3     1  UNL1        0.1025
     79 C          31.0550    2.8790  118.9480 C.2     1  UNL1        0.2365
     80 O          30.7810    3.0280  117.7510 O.2     1  UNL1       -0.2735
     81 C          30.9020    0.3560  118.9860 C.3     1  UNL1       -0.0243
     82 C          29.7330    0.0920  118.0440 C.3     1  UNL1       -0.0350
     83 C          28.5310    0.5790  118.8350 C.3     1  UNL1        0.0156
     84 N          31.8750    3.7930  119.6060 N.am    1  UNL1       -0.2917
     85 C          32.6180    4.7420  118.7770 C.3     1  UNL1        0.0040
     86 C          31.8980    4.0060  121.0780 C.3     1  UNL1        0.0991
     87 C          33.2900    3.7700  121.6620 C.3     1  UNL1       -0.0379
     88 C          31.3300    5.3780  121.5220 C.2     1  UNL1        0.2339
     89 O          31.6350    5.9000  122.5940 O.2     1  UNL1       -0.2738
     90 N          30.3640    5.9120  120.6980 N.am    1  UNL1       -0.3027
     91 C          29.7400    7.1970  120.9650 C.3     1  UNL1        0.0968
     92 C          28.5760    7.4450  119.9840 C.2     1  UNL1        0.2363
     93 O          28.8010    7.7020  118.7960 O.2     1  UNL1       -0.2736
     94 C          30.7460    8.3410  120.7890 C.3     1  UNL1       -0.0381
     95 C          26.4480    5.2530  121.5660 C.2     1  UNL1        0.3279
     96 N          27.2820    7.3660  120.4460 N.am    1  UNL1       -0.2862
     97 O          25.9700    4.5970  122.4850 O.2     1  UNL1       -0.2487
     98 C          26.7780    6.7560  121.6830 C.3     1  UNL1        0.1233
     99 C          25.4750    7.5250  121.9090 C.3     1  UNL1       -0.0199
    100 C          26.1870    7.8880  119.6390 C.3     1  UNL1        0.0182
    101 C          23.9330    8.8340  120.3630 C.3     1  UNL1       -0.0609
    102 C          24.9260    7.6910  120.4850 C.3     1  UNL1       -0.0258
@<TRIPOS>BOND
     1    29    82    1
     2    80    79    2
     3    26    82    1
     4     7    85    1
     5    82    83    1
     6    82    81    1
     7    23    83    1
     8    28    81    1
     9    45   100    1
    10     9    85    1
    11    85     8    1
    12    85    84    1
    13    93    92    2
    14    83    27    1
    15    83    77    1
    16    22    75    1
    17    79    84   am
    18    79    78    1
    19    81    25    1
    20    81    78    1
    21    47   101    1
    22    49   100    1
    23    84    86    1
    24   100    96    1
    25   100   102    1
    26    77    78    1
    27    77    73   am
    28    78    24    1
    29    30    94    1
    30    36    58    1
    31    31    90    1
    32    75    19    1
    33    75    76    1
    34    75    72    1
    35    92    96   am
    36    92    91    1
    37    21    72    1
    38    42   102    1
    39    76    95    1
    40   101   102    1
    41   101    46    1
    42   101    50    1
    43    96    98    1
    44   102    99    1
    45    73    72    1
    46    73    74    2
    47    72    71    1
    48    90    91    1
    49    90    88   am
    50    94    34    1
    51    94    91    1
    52    94    33    1
    53    58    35    1
    54    58    57    1
    55    58    37    1
    56    91    32    1
    57    86    88    1
    58    86    39    1
    59    86    87    1
    60     6    57    1
    61    41    87    1
    62    57    56    2
    63    40    87    1
    64    88    89    2
    65    95    98    1
    66    95    97    2
    67    87    38    1
    68    98    99    1
    69    98    43    1
    70    56     5    1
    71    56    55    1
    72    63    62    2
    73    99    44    1
    74    99    48    1
    75    71    62   am
    76    71    20    1
    77     4    55    1
    78    55    54    2
    79    62    61    1
    80    54     3    1
    81    54    53    1
    82     2    53    1
    83    53    52    2
    84    14    66    1
    85    52     1    1
    86    52    51    1
    87    16    68    1
    88    11    60    1
    89    51    59    2
    90    51    60   am
    91    60    61    1
    92    61    12    1
    93    61    64    1
    94    66    68   ar
    95    66    65   ar
    96    68    70   ar
    97    13    64    1
    98    64    65    1
    99    64    18    1
   100    65    67   ar
   101    70    10    1
   102    70    69   ar
   103    67    69   ar
   104    67    15    1
   105    69    17    1
