@<TRIPOS>MOLECULE
110.74372
 102 105 0 0 0
SMALL
GASTEIGER

@<TRIPOS>ATOM
      1 H          34.3920    3.1210  118.5920 H       1  UNL1        0.0669
      2 H          35.1820    6.0710  118.9870 H       1  UNL1        0.0619
      3 H          36.7920    3.4000  119.0790 H       1  UNL1        0.0618
      4 H          37.5830    6.3440  119.4860 H       1  UNL1        0.0617
      5 H          39.1670    3.6620  119.5940 H       1  UNL1        0.0614
      6 H          39.9740    6.6010  119.9930 H       1  UNL1        0.0569
      7 H          28.0420    0.3500  115.8370 H       1  UNL1        0.0429
      8 H          27.3250   -1.2600  115.6040 H       1  UNL1        0.0429
      9 H          29.0080   -1.0970  116.1740 H       1  UNL1        0.0429
     10 H          25.1290    6.4540  116.6180 H       1  UNL1        0.0618
     11 H          32.1960    2.8260  118.4100 H       1  UNL1        0.1498
     12 H          30.3560    5.0360  118.8800 H       1  UNL1        0.0598
     13 H          30.2620    3.6350  116.1290 H       1  UNL1        0.0336
     14 H          27.8440    3.1700  116.1730 H       1  UNL1        0.0620
     15 H          29.3370    7.0990  117.1760 H       1  UNL1        0.0620
     16 H          25.5540    4.0530  116.1450 H       1  UNL1        0.0618
     17 H          27.0260    7.9710  117.1260 H       1  UNL1        0.0618
     18 H          30.8660    5.2590  116.3580 H       1  UNL1        0.0336
     19 H          27.6500    1.4470  122.2400 H       1  UNL1        0.0721
     20 H          28.3790    4.2390  119.6780 H       1  UNL1        0.1496
     21 H          28.0870    1.3090  119.6570 H       1  UNL1        0.0629
     22 H          28.5160    2.9770  122.1610 H       1  UNL1        0.0721
     23 H          23.9000    2.8210  119.1930 H       1  UNL1        0.0465
     24 H          26.5290   -0.1660  120.0750 H       1  UNL1        0.0597
     25 H          24.2920   -0.8560  120.2880 H       1  UNL1        0.0288
     26 H          22.5110    0.4410  119.2880 H       1  UNL1        0.0281
     27 H          23.7440    1.9340  120.7280 H       1  UNL1        0.0465
     28 H          24.4630   -1.2690  118.5710 H       1  UNL1        0.0288
     29 H          23.5170    0.8540  117.8900 H       1  UNL1        0.0281
     30 H          31.8500    0.0110  116.7200 H       1  UNL1        0.0252
     31 H          29.7330    0.0240  118.4500 H       1  UNL1        0.1495
     32 H          31.9560   -1.8510  119.1450 H       1  UNL1        0.0592
     33 H          31.7780   -1.7560  116.6790 H       1  UNL1        0.0252
     34 H          33.2520   -0.9420  117.2350 H       1  UNL1        0.0252
     35 H          41.5160    3.9060  120.1150 H       1  UNL1        0.0272
     36 H          41.8080    5.2950  121.1760 H       1  UNL1        0.0272
     37 H          42.1640    5.4120  119.4420 H       1  UNL1        0.0272
     38 H          27.3990   -3.9600  118.6230 H       1  UNL1        0.0252
     39 H          27.5140   -1.6940  119.4590 H       1  UNL1        0.0594
     40 H          27.6310   -3.4220  116.9580 H       1  UNL1        0.0252
     41 H          26.1430   -3.0010  117.8220 H       1  UNL1        0.0252
     42 H          31.5160    1.5160  123.4550 H       1  UNL1        0.0314
     43 H          31.0230   -1.5950  121.1990 H       1  UNL1        0.0616
     44 H          32.4440   -1.3700  123.0980 H       1  UNL1        0.0292
     45 H          32.6010    2.1640  121.4820 H       1  UNL1        0.0467
     46 H          34.2100    0.1480  123.9680 H       1  UNL1        0.0233
     47 H          33.8360    1.8540  124.2590 H       1  UNL1        0.0233
     48 H          30.9260   -0.7920  123.8140 H       1  UNL1        0.0292
     49 H          33.8440    0.9020  121.6100 H       1  UNL1        0.0467
     50 H          33.0170    0.5940  125.1980 H       1  UNL1        0.0233
     51 C          32.9280    4.7700  118.4690 C.2     1  UNL1        0.2375
     52 C          34.2820    4.1950  118.6610 C.2     1  UNL1        0.0001
     53 C          35.3260    4.9940  118.9230 C.2     1  UNL1       -0.0569
     54 C          36.6600    4.4790  119.1430 C.2     1  UNL1       -0.0616
     55 C          37.7110    5.2650  119.4220 C.2     1  UNL1       -0.0621
     56 C          39.0380    4.7400  119.6520 C.2     1  UNL1       -0.0659
     57 C          40.0920    5.5210  119.9330 C.2     1  UNL1       -0.0871
     58 C          41.4700    4.9970  120.1790 C.3     1  UNL1       -0.0465
     59 O          32.7110    5.9740  118.4420 O.2     1  UNL1       -0.2708
     60 N          31.9520    3.8170  118.3500 N.am    1  UNL1       -0.3002
     61 C          30.5420    4.1800  118.2200 C.3     1  UNL1        0.1036
     62 C          29.7190    2.9770  118.7030 C.2     1  UNL1        0.2344
     63 O          29.9720    1.8190  118.3650 O.2     1  UNL1       -0.2738
     64 C          30.1670    4.5210  116.7720 C.3     1  UNL1       -0.0006
     65 C          28.7640    5.0730  116.6700 C.ar    1  UNL1       -0.0451
     66 C          27.6860    4.2280  116.3740 C.ar    1  UNL1       -0.0585
     67 C          28.5150    6.4260  116.9390 C.ar    1  UNL1       -0.0585
     68 C          26.3820    4.7240  116.3580 C.ar    1  UNL1       -0.0615
     69 C          27.2110    6.9210  116.9150 C.ar    1  UNL1       -0.0615
     70 C          26.1450    6.0700  116.6280 C.ar    1  UNL1       -0.0617
     71 N          28.6810    3.2760  119.5520 N.am    1  UNL1       -0.2997
     72 C          27.9080    2.2280  120.2090 C.3     1  UNL1        0.1340
     73 C          26.4200    2.5880  120.2020 C.2     1  UNL1        0.2399
     74 O          26.0440    3.6940  120.5950 O.2     1  UNL1       -0.2734
     75 C          28.3760    2.0180  121.6490 C.3     1  UNL1        0.1193
     76 O          29.6590    1.3570  121.6360 O.3     1  UNL1       -0.4610
     77 N          25.5410    1.6270  119.7510 N.am    1  UNL1       -0.2883
     78 C          25.8700    0.2600  119.3210 C.3     1  UNL1        0.1025
     79 C          26.5160    0.2570  117.9080 C.2     1  UNL1        0.2365
     80 O          26.1420    1.0780  117.0620 O.2     1  UNL1       -0.2735
     81 C          24.5170   -0.4510  119.2940 C.3     1  UNL1       -0.0243
     82 C          23.5320    0.6700  118.9710 C.3     1  UNL1       -0.0350
     83 C          24.1120    1.8730  119.6980 C.3     1  UNL1        0.0156
     84 N          27.4970   -0.6860  117.6000 N.am    1  UNL1       -0.2917
     85 C          28.0040   -0.6710  116.2290 C.3     1  UNL1        0.0040
     86 C          27.8800   -1.8440  118.4450 C.3     1  UNL1        0.0991
     87 C          27.2250   -3.1280  117.9320 C.3     1  UNL1       -0.0379
     88 C          29.4110   -2.0370  118.6100 C.2     1  UNL1        0.2339
     89 O          29.9110   -3.1360  118.8460 O.2     1  UNL1       -0.2738
     90 N          30.1640   -0.8830  118.6500 N.am    1  UNL1       -0.3027
     91 C          31.6240   -0.9150  118.6800 C.3     1  UNL1        0.0968
     92 C          32.2370    0.2430  119.5100 C.2     1  UNL1        0.2363
     93 O          32.9650    1.0960  118.9920 O.2     1  UNL1       -0.2736
     94 C          32.1570   -0.9000  117.2480 C.3     1  UNL1       -0.0381
     95 C          29.6490   -0.0060  121.6520 C.2     1  UNL1        0.3279
     96 N          32.0180    0.2450  120.8740 N.am    1  UNL1       -0.2862
     97 O          28.6330   -0.6810  121.7760 O.2     1  UNL1       -0.2487
     98 C          31.0740   -0.5900  121.6230 C.3     1  UNL1        0.1233
     99 C          31.6670   -0.5980  123.0320 C.3     1  UNL1       -0.0199
    100 C          32.7800    1.1180  121.7540 C.3     1  UNL1        0.0182
    101 C          33.4040    0.8490  124.2070 C.3     1  UNL1       -0.0609
    102 C          32.2950    0.7980  123.1690 C.3     1  UNL1       -0.0258
@<TRIPOS>BOND
     1     8    85    1
     2     7    85    1
     3    13    64    1
     4    16    68    1
     5    14    66    1
     6     9    85    1
     7    85    84    1
     8    18    64    1
     9    68    66   ar
    10    68    70   ar
    11    66    65   ar
    12    10    70    1
    13    70    69   ar
    14    65    64    1
    15    65    67   ar
    16    33    94    1
    17    30    94    1
    18    64    61    1
    19    69    67   ar
    20    69    17    1
    21    67    15    1
    22    40    87    1
    23    80    79    2
    24    34    94    1
    25    94    91    1
    26    84    79   am
    27    84    86    1
    28    41    87    1
    29    29    82    1
    30    79    78    1
    31    87    86    1
    32    87    38    1
    33    61    60    1
    34    61    62    1
    35    61    12    1
    36    60    11    1
    37    60    51   am
    38    63    62    2
    39    59    51    2
    40    86    88    1
    41    86    39    1
    42    31    90    1
    43    51    52    1
    44    28    81    1
    45     1    52    1
    46    88    90   am
    47    88    89    2
    48    90    91    1
    49    52    53    2
    50    91    32    1
    51    91    92    1
    52    62    71   am
    53    53     2    1
    54    53    54    1
    55    82    26    1
    56    82    81    1
    57    82    83    1
    58    93    92    2
    59     3    54    1
    60    54    55    2
    61    23    83    1
    62    81    78    1
    63    81    25    1
    64    78    77    1
    65    78    24    1
    66    55     4    1
    67    55    56    1
    68    37    58    1
    69    92    96   am
    70    71    20    1
    71    71    72    1
    72     5    56    1
    73    56    57    2
    74    21    72    1
    75    83    77    1
    76    83    27    1
    77    77    73   am
    78    57     6    1
    79    57    58    1
    80    35    58    1
    81    58    36    1
    82    73    72    1
    83    73    74    2
    84    72    75    1
    85    96    98    1
    86    96   100    1
    87    43    98    1
    88    45   100    1
    89    49   100    1
    90    98    95    1
    91    98    99    1
    92    76    75    1
    93    76    95    1
    94    75    22    1
    95    75    19    1
    96    95    97    2
    97   100   102    1
    98    99    44    1
    99    99   102    1
   100    99    48    1
   101   102    42    1
   102   102   101    1
   103    46   101    1
   104   101    47    1
   105   101    50    1
