@<TRIPOS>MOLECULE
135.78086
 102 105 0 0 0
SMALL
GASTEIGER

@<TRIPOS>ATOM
      1 H          24.9800    7.3350  139.5630 H       1  UNL1        0.0669
      2 H          24.3050    6.8330  142.5280 H       1  UNL1        0.0619
      3 H          24.6610    9.4410  140.8530 H       1  UNL1        0.0618
      4 H          23.9960    8.9000  143.8060 H       1  UNL1        0.0617
      5 H          24.3490   11.5080  142.1360 H       1  UNL1        0.0614
      6 H          23.6880   10.9670  145.0890 H       1  UNL1        0.0569
      7 H          23.5910    2.3170  132.2930 H       1  UNL1        0.0429
      8 H          23.1860    0.8250  133.1540 H       1  UNL1        0.0429
      9 H          23.4360    0.7760  131.4030 H       1  UNL1        0.0429
     10 H          24.1110   -2.6410  138.9560 H       1  UNL1        0.0618
     11 H          25.2900    5.4320  138.4030 H       1  UNL1        0.1498
     12 H          25.7520    2.9290  139.7630 H       1  UNL1        0.0598
     13 H          23.3530    3.0720  137.8210 H       1  UNL1        0.0336
     14 H          23.6290    0.9560  136.6780 H       1  UNL1        0.0620
     15 H          24.0830    1.1500  140.9710 H       1  UNL1        0.0620
     16 H          23.8020   -1.4910  136.7760 H       1  UNL1        0.0618
     17 H          24.2440   -1.3140  141.0490 H       1  UNL1        0.0618
     18 H          23.1290    3.0950  139.5530 H       1  UNL1        0.0336
     19 H          29.4790    1.8750  136.8620 H       1  UNL1        0.0721
     20 H          26.5540    1.2880  138.1860 H       1  UNL1        0.1496
     21 H          26.7640    1.9740  135.4140 H       1  UNL1        0.0629
     22 H          28.6640    3.4120  136.4980 H       1  UNL1        0.0721
     23 H          27.0710   -2.4820  135.8680 H       1  UNL1        0.0465
     24 H          27.6840    0.8630  133.5850 H       1  UNL1        0.0597
     25 H          28.6450   -1.1100  132.6440 H       1  UNL1        0.0288
     26 H          27.8960   -3.3060  133.3630 H       1  UNL1        0.0281
     27 H          28.7350   -2.1760  135.3140 H       1  UNL1        0.0465
     28 H          27.0400   -1.2370  131.8950 H       1  UNL1        0.0288
     29 H          26.2510   -2.7110  133.6460 H       1  UNL1        0.0281
     30 H          27.9480    4.5890  134.2580 H       1  UNL1        0.0252
     31 H          28.2770    3.0360  131.1410 H       1  UNL1        0.1495
     32 H          27.6030    5.5620  131.4150 H       1  UNL1        0.0592
     33 H          26.8410    5.7740  133.5960 H       1  UNL1        0.0252
     34 H          28.5310    6.2090  133.8300 H       1  UNL1        0.0252
     35 H          24.0450   13.5500  143.4010 H       1  UNL1        0.0272
     36 H          24.5780   13.3520  145.0800 H       1  UNL1        0.0272
     37 H          22.8470   13.3370  144.6900 H       1  UNL1        0.0272
     38 H          26.4120    2.1690  129.4640 H       1  UNL1        0.0252
     39 H          27.0820    1.1460  131.5520 H       1  UNL1        0.0594
     40 H          24.7500    2.3640  130.0100 H       1  UNL1        0.0252
     41 H          25.4060    0.7360  129.7480 H       1  UNL1        0.0252
     42 H          32.9970    4.0060  133.8320 H       1  UNL1        0.0314
     43 H          29.7690    2.4120  132.5420 H       1  UNL1        0.0616
     44 H          31.9560    1.8350  131.9500 H       1  UNL1        0.0292
     45 H          32.2590    5.6580  132.2910 H       1  UNL1        0.0467
     46 H          34.0870    2.8890  131.1900 H       1  UNL1        0.0233
     47 H          34.8190    4.1840  132.1520 H       1  UNL1        0.0233
     48 H          32.1520    1.7340  133.7100 H       1  UNL1        0.0292
     49 H          32.2040    4.5170  130.9280 H       1  UNL1        0.0467
     50 H          34.7190    2.5400  132.8070 H       1  UNL1        0.0233
     51 C          24.8040    5.3080  140.4300 C.2     1  UNL1        0.2375
     52 C          24.7760    6.7910  140.4760 C.2     1  UNL1        0.0001
     53 C          24.5050    7.4180  141.6300 C.2     1  UNL1       -0.0569
     54 C          24.4630    8.8580  141.7500 C.2     1  UNL1       -0.0616
     55 C          24.1940    9.4820  142.9070 C.2     1  UNL1       -0.0621
     56 C          24.1530   10.9210  143.0310 C.2     1  UNL1       -0.0659
     57 C          23.8860   11.5440  144.1890 C.2     1  UNL1       -0.0871
     58 C          23.8380   13.0300  144.3410 C.3     1  UNL1       -0.0465
     59 O          24.5850    4.6040  141.4070 O.2     1  UNL1       -0.2708
     60 N          25.1010    4.8180  139.1890 N.am    1  UNL1       -0.3002
     61 C          25.2000    3.3820  138.9310 C.3     1  UNL1        0.1036
     62 C          26.0230    3.2270  137.6400 C.2     1  UNL1        0.2344
     63 O          26.0960    4.1210  136.7960 O.2     1  UNL1       -0.2738
     64 C          23.8090    2.7450  138.7650 C.3     1  UNL1       -0.0006
     65 C          23.8450    1.2360  138.8200 C.ar    1  UNL1       -0.0451
     66 C          23.7550    0.4760  137.6470 C.ar    1  UNL1       -0.0585
     67 C          24.0160    0.5790  140.0460 C.ar    1  UNL1       -0.0585
     68 C          23.8540   -0.9150  137.6970 C.ar    1  UNL1       -0.0615
     69 C          24.1080   -0.8120  140.0950 C.ar    1  UNL1       -0.0615
     70 C          24.0310   -1.5580  138.9200 C.ar    1  UNL1       -0.0617
     71 N          26.6560    2.0200  137.4830 N.am    1  UNL1       -0.2997
     72 C          27.3830    1.6760  136.2640 C.3     1  UNL1        0.1340
     73 C          27.5940    0.1520  136.2820 C.2     1  UNL1        0.2399
     74 O          27.9100   -0.4110  137.3360 O.2     1  UNL1       -0.2734
     75 C          28.7550    2.3620  136.1980 C.3     1  UNL1        0.1193
     76 O          29.2530    2.2800  134.8490 O.3     1  UNL1       -0.4610
     77 N          27.4600   -0.5560  135.1090 N.am    1  UNL1       -0.2883
     78 C          27.1260   -0.0540  133.7700 C.3     1  UNL1        0.1025
     79 C          25.6100    0.2150  133.5810 C.2     1  UNL1        0.2365
     80 O          24.7930   -0.2940  134.3530 O.2     1  UNL1       -0.2735
     81 C          27.5710   -1.1960  132.8500 C.3     1  UNL1       -0.0243
     82 C          27.3130   -2.4410  133.6920 C.3     1  UNL1       -0.0350
     83 C          27.6770   -1.9930  135.0980 C.3     1  UNL1        0.0156
     84 N          25.2080    0.9860  132.4870 N.am    1  UNL1       -0.2917
     85 C          23.7760    1.2410  132.3330 C.3     1  UNL1        0.0040
     86 C          26.1320    1.6870  131.5630 C.3     1  UNL1        0.0991
     87 C          25.6430    1.7400  130.1160 C.3     1  UNL1       -0.0379
     88 C          26.4270    3.1260  132.0530 C.2     1  UNL1        0.2339
     89 O          25.5780    3.8330  132.5840 O.2     1  UNL1       -0.2738
     90 N          27.7160    3.5570  131.8040 N.am    1  UNL1       -0.3027
     91 C          28.1650    4.9190  132.1060 C.3     1  UNL1        0.0968
     92 C          29.6590    5.1450  131.7690 C.2     1  UNL1        0.2363
     93 O          29.9740    6.1410  131.1060 O.2     1  UNL1       -0.2736
     94 C          27.8650    5.3930  133.5260 C.3     1  UNL1       -0.0381
     95 C          30.1730    3.2230  134.4960 C.2     1  UNL1        0.3279
     96 N          30.6380    4.3120  132.2730 N.am    1  UNL1       -0.2862
     97 O          30.6570    4.0570  135.2470 O.2     1  UNL1       -0.2487
     98 C          30.5180    3.0500  133.0140 C.3     1  UNL1        0.1233
     99 C          31.9030    2.4080  132.8840 C.3     1  UNL1       -0.0199
    100 C          32.0370    4.6240  132.0060 C.3     1  UNL1        0.0182
    101 C          34.1930    3.2870  132.2050 C.3     1  UNL1       -0.0609
    102 C          32.8430    3.6140  132.8190 C.3     1  UNL1       -0.0258
@<TRIPOS>BOND
     1    38    87    1
     2    41    87    1
     3    40    87    1
     4    87    86    1
     5    49   100    1
     6    93    92    2
     7    31    90    1
     8    46   101    1
     9     9    85    1
    10    32    91    1
    11    39    86    1
    12    86    88    1
    13    86    84    1
    14    92    91    1
    15    92    96   am
    16    90    88   am
    17    90    91    1
    18    28    81    1
    19    44    99    1
    20   100    96    1
    21   100    45    1
    22   100   102    1
    23    88    89    2
    24    91    94    1
    25    47   101    1
    26   101    50    1
    27   101   102    1
    28    96    98    1
    29     7    85    1
    30    85    84    1
    31    85     8    1
    32    84    79   am
    33    43    98    1
    34    25    81    1
    35   102    99    1
    36   102    42    1
    37    81    82    1
    38    81    78    1
    39    99    98    1
    40    99    48    1
    41    98    95    1
    42    26    82    1
    43    94    33    1
    44    94    34    1
    45    94    30    1
    46    79    78    1
    47    79    80    2
    48    24    78    1
    49    29    82    1
    50    82    83    1
    51    78    77    1
    52    95    76    1
    53    95    97    2
    54    76    75    1
    55    83    77    1
    56    83    27    1
    57    83    23    1
    58    77    73   am
    59    21    72    1
    60    75    72    1
    61    75    22    1
    62    75    19    1
    63    72    73    1
    64    72    71    1
    65    73    74    2
    66    14    66    1
    67    16    68    1
    68    63    62    2
    69    71    62   am
    70    71    20    1
    71    62    61    1
    72    66    68   ar
    73    66    65   ar
    74    68    70   ar
    75    13    64    1
    76    11    60    1
    77    64    65    1
    78    64    61    1
    79    64    18    1
    80    65    67   ar
    81    70    10    1
    82    70    69   ar
    83    61    60    1
    84    61    12    1
    85    60    51   am
    86     1    52    1
    87    67    69   ar
    88    67    15    1
    89    69    17    1
    90    51    52    1
    91    51    59    2
    92    52    53    2
    93     3    54    1
    94    53    54    1
    95    53     2    1
    96    54    55    2
    97     5    56    1
    98    55    56    1
    99    55     4    1
   100    56    57    2
   101    35    58    1
   102    57    58    1
   103    57     6    1
   104    58    37    1
   105    58    36    1
