@<TRIPOS>MOLECULE
120.84582
 102 105 0 0 0
SMALL
GASTEIGER

@<TRIPOS>ATOM
      1 H          38.4820    6.4600  123.1300 H       1  UNL1        0.0669
      2 H          37.7590    7.8890  125.7620 H       1  UNL1        0.0619
      3 H          40.4110    6.6610  124.6690 H       1  UNL1        0.0618
      4 H          39.6500    7.9850  127.3380 H       1  UNL1        0.0617
      5 H          42.2950    6.7690  126.2230 H       1  UNL1        0.0614
      6 H          41.5340    8.0430  128.9150 H       1  UNL1        0.0569
      7 H          27.4400   -0.2870  119.6750 H       1  UNL1        0.0429
      8 H          25.9510    0.5680  119.2570 H       1  UNL1        0.0429
      9 H          26.5410    0.5600  120.9440 H       1  UNL1        0.0429
     10 H          28.9080    7.7230  120.3160 H       1  UNL1        0.0618
     11 H          36.6640    5.9290  121.9330 H       1  UNL1        0.1498
     12 H          34.0240    6.3820  122.9580 H       1  UNL1        0.0598
     13 H          34.7820    7.7870  120.3160 H       1  UNL1        0.0336
     14 H          32.9330    7.4530  118.8520 H       1  UNL1        0.0620
     15 H          32.1870    8.1880  123.0420 H       1  UNL1        0.0620
     16 H          30.5000    7.4150  118.4370 H       1  UNL1        0.0618
     17 H          29.7550    8.1240  122.6050 H       1  UNL1        0.0618
     18 H          34.5070    8.6490  121.8120 H       1  UNL1        0.0336
     19 H          34.2030    2.2680  121.7960 H       1  UNL1        0.0721
     20 H          32.4260    5.2030  121.5890 H       1  UNL1        0.1496
     21 H          33.4960    3.3520  119.6040 H       1  UNL1        0.0629
     22 H          33.0540    1.3170  120.8610 H       1  UNL1        0.0721
     23 H          32.4780    1.8120  118.0770 H       1  UNL1        0.0465
     24 H          29.1140    3.9460  118.9500 H       1  UNL1        0.0597
     25 H          29.6780    4.0740  116.6680 H       1  UNL1        0.0288
     26 H          31.2410    2.5180  115.6910 H       1  UNL1        0.0281
     27 H          32.4280    3.5040  117.5210 H       1  UNL1        0.0465
     28 H          28.6890    2.6020  116.5760 H       1  UNL1        0.0288
     29 H          30.6520    1.1890  116.6960 H       1  UNL1        0.0281
     30 H          27.0360    2.6470  124.7200 H       1  UNL1        0.0252
     31 H          28.1440    1.7100  121.8020 H       1  UNL1        0.1495
     32 H          29.5540    3.6190  123.2480 H       1  UNL1        0.0592
     33 H          27.4210    4.3270  124.3290 H       1  UNL1        0.0252
     34 H          28.4070    3.4430  125.5020 H       1  UNL1        0.0252
     35 H          44.1540    6.8280  127.7690 H       1  UNL1        0.0272
     36 H          43.6010    6.6520  129.4440 H       1  UNL1        0.0272
     37 H          44.0710    8.2480  128.8270 H       1  UNL1        0.0272
     38 H          25.0200    4.0880  120.3880 H       1  UNL1        0.0252
     39 H          27.1860    3.8900  119.3030 H       1  UNL1        0.0594
     40 H          25.0770    2.4240  120.9580 H       1  UNL1        0.0252
     41 H          24.9630    2.7620  119.2170 H       1  UNL1        0.0252
     42 H          33.2140    0.4520  125.0490 H       1  UNL1        0.0314
     43 H          30.9480    3.5330  124.9830 H       1  UNL1        0.0616
     44 H          31.6740    2.3130  126.9270 H       1  UNL1        0.0292
     45 H          31.1810   -0.5020  124.3480 H       1  UNL1        0.0467
     46 H          31.9170   -0.0240  127.7900 H       1  UNL1        0.0233
     47 H          32.7600   -1.2380  126.8150 H       1  UNL1        0.0233
     48 H          33.2440    2.6120  126.1590 H       1  UNL1        0.0292
     49 H          30.3290   -0.0900  125.8530 H       1  UNL1        0.0467
     50 H          33.6520    0.1440  127.4740 H       1  UNL1        0.0233
     51 C          36.4480    7.2050  123.5670 C.2     1  UNL1        0.2375
     52 C          37.8820    6.9770  123.8680 C.2     1  UNL1        0.0001
     53 C          38.3960    7.3820  125.0390 C.2     1  UNL1       -0.0569
     54 C          39.7770    7.1520  125.4040 C.2     1  UNL1       -0.0616
     55 C          40.2830    7.5000  126.5970 C.2     1  UNL1       -0.0621
     56 C          41.6580    7.2470  126.9650 C.2     1  UNL1       -0.0659
     57 C          42.1620    7.5680  128.1650 C.2     1  UNL1       -0.0871
     58 C          43.5780    7.3060  128.5670 C.3     1  UNL1       -0.0465
     59 O          35.7190    7.9010  124.2600 O.2     1  UNL1       -0.2708
     60 N          36.0330    6.5310  122.4520 N.am    1  UNL1       -0.3002
     61 C          34.6280    6.4880  122.0480 C.3     1  UNL1        0.1036
     62 C          34.4650    5.2100  121.2000 C.2     1  UNL1        0.2344
     63 O          35.4160    4.6710  120.6300 O.2     1  UNL1       -0.2738
     64 C          34.2230    7.7440  121.2600 C.3     1  UNL1       -0.0006
     65 C          32.7390    7.8140  120.9800 C.ar    1  UNL1       -0.0451
     66 C          32.2490    7.6110  119.6820 C.ar    1  UNL1       -0.0585
     67 C          31.8300    8.0180  122.0280 C.ar    1  UNL1       -0.0585
     68 C          30.8740    7.5840  119.4430 C.ar    1  UNL1       -0.0615
     69 C          30.4570    7.9850  121.7860 C.ar    1  UNL1       -0.0615
     70 C          29.9790    7.7620  120.4960 C.ar    1  UNL1       -0.0617
     71 N          33.1890    4.7170  121.1210 N.am    1  UNL1       -0.2997
     72 C          32.8760    3.4380  120.4990 C.3     1  UNL1        0.1340
     73 C          31.3850    3.4710  120.1510 C.2     1  UNL1        0.2399
     74 O          30.5700    3.9130  120.9660 O.2     1  UNL1       -0.2734
     75 C          33.1690    2.2470  121.4290 C.3     1  UNL1        0.1193
     76 O          32.2610    2.1310  122.5490 O.3     1  UNL1       -0.4610
     77 N          30.9790    3.0180  118.9210 N.am    1  UNL1       -0.2883
     78 C          29.5610    3.0320  118.5600 C.3     1  UNL1        0.1025
     79 C          28.8420    1.7510  119.0690 C.2     1  UNL1        0.2365
     80 O          29.3880    0.6510  118.9210 O.2     1  UNL1       -0.2735
     81 C          29.5820    3.0430  117.0300 C.3     1  UNL1       -0.0243
     82 C          30.8510    2.2670  116.6820 C.3     1  UNL1       -0.0350
     83 C          31.8180    2.6380  117.7970 C.3     1  UNL1        0.0156
     84 N          27.5610    1.8460  119.6240 N.am    1  UNL1       -0.2917
     85 C          26.8400    0.6000  119.8930 C.3     1  UNL1        0.0040
     86 C          26.9410    3.1310  120.0520 C.3     1  UNL1        0.0991
     87 C          25.4150    3.0920  120.1580 C.3     1  UNL1       -0.0379
     88 C          27.5160    3.6280  121.4060 C.2     1  UNL1        0.2339
     89 O          27.3730    4.7900  121.7800 O.2     1  UNL1       -0.2738
     90 N          28.0630    2.6440  122.1900 N.am    1  UNL1       -0.3027
     91 C          28.7790    2.8750  123.4390 C.3     1  UNL1        0.0968
     92 C          29.3910    1.5170  123.8470 C.2     1  UNL1        0.2363
     93 O          28.7830    0.4660  123.6050 O.2     1  UNL1       -0.2736
     94 C          27.8600    3.3510  124.5580 C.3     1  UNL1       -0.0381
     95 C          32.5040    2.8930  123.6490 C.2     1  UNL1        0.3279
     96 N          30.5770    1.5000  124.5420 N.am    1  UNL1       -0.2862
     97 O          33.4150    3.7060  123.7510 O.2     1  UNL1       -0.2487
     98 C          31.5030    2.6100  124.7920 C.3     1  UNL1        0.1233
     99 C          32.2710    2.1300  126.0250 C.3     1  UNL1       -0.0199
    100 C          31.0700    0.2610  125.1250 C.3     1  UNL1        0.0182
    101 C          32.6980   -0.1680  127.0360 C.3     1  UNL1       -0.0609
    102 C          32.4060    0.6230  125.7730 C.3     1  UNL1       -0.0258
@<TRIPOS>BOND
     1    26    82    1
     2    28    81    1
     3    25    81    1
     4    82    29    1
     5    82    81    1
     6    82    83    1
     7    81    78    1
     8    27    83    1
     9    83    23    1
    10    83    77    1
    11    16    68    1
    12    78    77    1
    13    78    24    1
    14    78    79    1
    15    14    66    1
    16    80    79    2
    17    77    73   am
    18    79    84   am
    19    41    87    1
    20     8    85    1
    21    39    86    1
    22    68    66   ar
    23    68    70   ar
    24    21    72    1
    25    84    85    1
    26    84    86    1
    27     7    85    1
    28    66    65   ar
    29    85     9    1
    30    86    87    1
    31    86    88    1
    32    73    72    1
    33    73    74    2
    34    87    38    1
    35    87    40    1
    36    10    70    1
    37    13    64    1
    38    70    69   ar
    39    72    71    1
    40    72    75    1
    41    63    62    2
    42    22    75    1
    43    65    64    1
    44    65    67   ar
    45    71    62   am
    46    71    20    1
    47    62    61    1
    48    64    18    1
    49    64    61    1
    50    88    89    2
    51    88    90   am
    52    75    19    1
    53    75    76    1
    54    69    67   ar
    55    69    17    1
    56    31    90    1
    57    11    60    1
    58    67    15    1
    59    61    60    1
    60    61    12    1
    61    90    91    1
    62    60    51   am
    63    76    95    1
    64     1    52    1
    65    32    91    1
    66    91    92    1
    67    91    94    1
    68    51    52    1
    69    51    59    2
    70    93    92    2
    71    95    97    2
    72    95    98    1
    73    92    96   am
    74    52    53    2
    75    33    94    1
    76    45   100    1
    77    96    98    1
    78    96   100    1
    79    94    30    1
    80    94    34    1
    81     3    54    1
    82    98    43    1
    83    98    99    1
    84    53    54    1
    85    53     2    1
    86    42   102    1
    87   100   102    1
    88   100    49    1
    89    54    55    2
    90   102    99    1
    91   102   101    1
    92    99    48    1
    93    99    44    1
    94     5    56    1
    95    55    56    1
    96    55     4    1
    97    47   101    1
    98    56    57    2
    99   101    50    1
   100   101    46    1
   101    35    58    1
   102    57    58    1
   103    57     6    1
   104    58    37    1
   105    58    36    1
