@<TRIPOS>MOLECULE
118.36985
 102 105 0 0 0
SMALL
GASTEIGER

@<TRIPOS>ATOM
      1 H          34.3910    2.6610  118.1340 H       1  UNL1        0.0669
      2 H          33.8380    2.4270  121.1910 H       1  UNL1        0.0619
      3 H          36.2370    1.3890  119.4970 H       1  UNL1        0.0618
      4 H          35.5270    1.2050  122.4860 H       1  UNL1        0.0617
      5 H          37.9440    0.1810  120.8040 H       1  UNL1        0.0614
      6 H          37.2130   -0.0050  123.7850 H       1  UNL1        0.0569
      7 H          26.5830    2.8920  115.0150 H       1  UNL1        0.0429
      8 H          25.4540    1.7670  114.2290 H       1  UNL1        0.0429
      9 H          27.2120    1.5960  113.9830 H       1  UNL1        0.0429
     10 H          34.0960    9.0860  115.8130 H       1  UNL1        0.0618
     11 H          32.4740    3.1260  116.9840 H       1  UNL1        0.1498
     12 H          30.5260    4.9400  118.3560 H       1  UNL1        0.0598
     13 H          29.6450    5.2930  115.9980 H       1  UNL1        0.0336
     14 H          30.4050    7.4440  117.2590 H       1  UNL1        0.0620
     15 H          33.0650    5.0310  114.8620 H       1  UNL1        0.0620
     16 H          31.9840    9.3330  117.0890 H       1  UNL1        0.0618
     17 H          34.6290    6.9340  114.7020 H       1  UNL1        0.0618
     18 H          30.8730    4.2180  115.3750 H       1  UNL1        0.0336
     19 H          28.8640   -0.4550  120.2370 H       1  UNL1        0.0721
     20 H          29.8950    3.0910  119.6780 H       1  UNL1        0.1496
     21 H          28.3450    1.0510  118.1620 H       1  UNL1        0.0629
     22 H          30.0860    0.7520  120.6290 H       1  UNL1        0.0721
     23 H          24.9030    2.5860  120.5920 H       1  UNL1        0.0465
     24 H          26.6580   -0.2680  118.2700 H       1  UNL1        0.0597
     25 H          24.5520   -0.9390  119.0650 H       1  UNL1        0.0288
     26 H          23.0020    0.6900  119.9550 H       1  UNL1        0.0281
     27 H          25.0430    0.9250  121.2140 H       1  UNL1        0.0465
     28 H          23.9690   -0.1520  117.5850 H       1  UNL1        0.0288
     29 H          23.5110    1.9080  118.7750 H       1  UNL1        0.0281
     30 H          30.3820    2.2600  114.0020 H       1  UNL1        0.0252
     31 H          28.9250    1.0460  115.8700 H       1  UNL1        0.1495
     32 H          30.7160   -0.7620  114.2790 H       1  UNL1        0.0592
     33 H          29.8340    1.0360  112.8510 H       1  UNL1        0.0252
     34 H          31.5680    1.2660  113.1430 H       1  UNL1        0.0252
     35 H          39.6160   -1.0080  122.0920 H       1  UNL1        0.0272
     36 H          38.8800   -1.8980  123.4380 H       1  UNL1        0.0272
     37 H          39.7300   -0.3700  123.7420 H       1  UNL1        0.0272
     38 H          25.9080   -2.2130  114.6430 H       1  UNL1        0.0252
     39 H          26.8530   -1.0210  116.5190 H       1  UNL1        0.0594
     40 H          25.6960   -0.7220  113.7230 H       1  UNL1        0.0252
     41 H          24.7370   -0.9990  115.1870 H       1  UNL1        0.0252
     42 H          32.6590   -1.5400  119.3150 H       1  UNL1        0.0314
     43 H          30.4980   -2.0610  116.1560 H       1  UNL1        0.0616
     44 H          32.4040   -3.3160  116.8450 H       1  UNL1        0.0292
     45 H          33.3050    0.2770  117.9870 H       1  UNL1        0.0467
     46 H          34.7560   -2.9510  117.5820 H       1  UNL1        0.0233
     47 H          35.0830   -1.9550  119.0090 H       1  UNL1        0.0233
     48 H          31.4580   -3.3930  118.3450 H       1  UNL1        0.0292
     49 H          33.9840   -0.7390  116.7010 H       1  UNL1        0.0467
     50 H          34.1950   -3.4800  119.1760 H       1  UNL1        0.0233
     51 C          32.5220    3.4170  119.0360 C.2     1  UNL1        0.2375
     52 C          33.8490    2.7730  119.0640 C.2     1  UNL1        0.0001
     53 C          34.4180    2.2570  120.2840 C.2     1  UNL1       -0.0569
     54 C          35.6620    1.5340  120.4080 C.2     1  UNL1       -0.0616
     55 C          36.1090    1.0540  121.5780 C.2     1  UNL1       -0.0621
     56 C          37.3530    0.3300  121.7060 C.2     1  UNL1       -0.0659
     57 C          37.7950   -0.1510  122.8780 C.2     1  UNL1       -0.0871
     58 C          39.0790   -0.8980  123.0390 C.3     1  UNL1       -0.0465
     59 O          31.9080    3.7090  120.0550 O.2     1  UNL1       -0.2708
     60 N          32.0330    3.5980  117.7720 N.am    1  UNL1       -0.3002
     61 C          30.7320    4.2290  117.5460 C.3     1  UNL1        0.1036
     62 C          29.6930    3.0970  117.6150 C.2     1  UNL1        0.2344
     63 O          29.2000    2.5740  116.6160 O.2     1  UNL1       -0.2738
     64 C          30.6650    4.9310  116.1830 C.3     1  UNL1       -0.0006
     65 C          31.6170    6.0990  116.0700 C.ar    1  UNL1       -0.0451
     66 C          31.3260    7.3190  116.6940 C.ar    1  UNL1       -0.0585
     67 C          32.8150    5.9700  115.3520 C.ar    1  UNL1       -0.0585
     68 C          32.2160    8.3900  116.6000 C.ar    1  UNL1       -0.0615
     69 C          33.7030    7.0420  115.2600 C.ar    1  UNL1       -0.0615
     70 C          33.4040    8.2520  115.8840 C.ar    1  UNL1       -0.0617
     71 N          29.4510    2.6240  118.8850 N.am    1  UNL1       -0.2997
     72 C          28.6540    1.4290  119.1330 C.3     1  UNL1        0.1340
     73 C          27.4290    1.7460  119.9980 C.2     1  UNL1        0.2399
     74 O          27.5520    2.3480  121.0670 O.2     1  UNL1       -0.2734
     75 C          29.4880    0.3390  119.8090 C.3     1  UNL1        0.1193
     76 O          30.4110   -0.2060  118.8430 O.3     1  UNL1       -0.4610
     77 N          26.2030    1.3050  119.5440 N.am    1  UNL1       -0.2883
     78 C          25.9350    0.5430  118.3150 C.3     1  UNL1        0.1025
     79 C          25.9950    1.4600  117.0620 C.2     1  UNL1        0.2365
     80 O          25.5890    2.6260  117.1400 O.2     1  UNL1       -0.2735
     81 C          24.5170    0.0110  118.5180 C.3     1  UNL1       -0.0243
     82 C          23.8590    1.0740  119.3950 C.3     1  UNL1       -0.0350
     83 C          24.9890    1.5340  120.3040 C.3     1  UNL1        0.0156
     84 N          26.4690    0.9480  115.8540 N.am    1  UNL1       -0.2917
     85 C          26.4350    1.8530  114.7060 C.3     1  UNL1        0.0040
     86 C          26.8110   -0.4680  115.5810 C.3     1  UNL1        0.0991
     87 C          25.7250   -1.1370  114.7360 C.3     1  UNL1       -0.0379
     88 C          28.2130   -0.6780  114.9450 C.2     1  UNL1        0.2339
     89 O          28.4820   -1.6680  114.2660 O.2     1  UNL1       -0.2738
     90 N          29.1910    0.2140  115.3330 N.am    1  UNL1       -0.3027
     91 C          30.5280    0.2150  114.7410 C.3     1  UNL1        0.0968
     92 C          31.6720    0.4410  115.7690 C.2     1  UNL1        0.2363
     93 O          32.4010    1.4390  115.7330 O.2     1  UNL1       -0.2736
     94 C          30.5830    1.2530  113.6210 C.3     1  UNL1       -0.0381
     95 C          29.9630   -1.2390  118.0730 C.2     1  UNL1        0.3279
     96 N          31.9190   -0.5770  116.6730 N.am    1  UNL1       -0.2862
     97 O          28.8870   -1.8030  118.2380 O.2     1  UNL1       -0.2487
     98 C          31.0150   -1.6740  117.0350 C.3     1  UNL1        0.1233
     99 C          31.9550   -2.7140  117.6450 C.3     1  UNL1       -0.0199
    100 C          33.1630   -0.6450  117.4200 C.3     1  UNL1        0.0182
    101 C          34.3410   -2.6050  118.5340 C.3     1  UNL1       -0.0609
    102 C          33.0310   -1.8630  118.3340 C.3     1  UNL1       -0.0258
@<TRIPOS>BOND
     1    33    94    1
     2    34    94    1
     3    94    30    1
     4    94    91    1
     5    40    87    1
     6     9    85    1
     7     8    85    1
     8    89    88    2
     9    32    91    1
    10    38    87    1
    11    17    69    1
    12    85     7    1
    13    85    84    1
    14    87    41    1
    15    87    86    1
    16    91    90    1
    17    91    92    1
    18    15    67    1
    19    88    90   am
    20    88    86    1
    21    69    67   ar
    22    69    70   ar
    23    90    31    1
    24    67    65   ar
    25    18    64    1
    26    86    84    1
    27    86    39    1
    28    93    92    2
    29    92    96   am
    30    10    70    1
    31    84    79   am
    32    70    68   ar
    33    13    64    1
    34    65    64    1
    35    65    66   ar
    36    43    98    1
    37    64    61    1
    38    68    66   ar
    39    68    16    1
    40    63    62    2
    41    96    98    1
    42    96   100    1
    43    66    14    1
    44    49   100    1
    45    44    99    1
    46    11    60    1
    47    98    99    1
    48    98    95    1
    49    79    80    2
    50    79    78    1
    51   100    45    1
    52   100   102    1
    53    61    62    1
    54    61    60    1
    55    61    12    1
    56    46   101    1
    57    28    81    1
    58    62    71   am
    59    99   102    1
    60    99    48    1
    61    60    51   am
    62    95    97    2
    63    95    76    1
    64     1    52    1
    65    21    72    1
    66    24    78    1
    67    78    81    1
    68    78    77    1
    69   102   101    1
    70   102    42    1
    71    81    25    1
    72    81    82    1
    73   101    47    1
    74   101    50    1
    75    29    82    1
    76    76    75    1
    77    71    72    1
    78    71    20    1
    79    51    52    1
    80    51    59    2
    81    52    53    2
    82    72    75    1
    83    72    73    1
    84    82    26    1
    85    82    83    1
    86     3    54    1
    87    77    73   am
    88    77    83    1
    89    75    19    1
    90    75    22    1
    91    73    74    2
    92    53    54    1
    93    53     2    1
    94    83    23    1
    95    83    27    1
    96    54    55    2
    97     5    56    1
    98    55    56    1
    99    55     4    1
   100    56    57    2
   101    35    58    1
   102    57    58    1
   103    57     6    1
   104    58    36    1
   105    58    37    1
