@<TRIPOS>MOLECULE
208.03750
 51 56 0 0 0
SMALL
GASTEIGER

@<TRIPOS>ATOM
      1  H01       -5.7210    9.6900   15.5130 H     501  1CD501      0.0445
      2  H02       -5.5650   10.1490   11.8020 H     501  1CD501      0.0245
      3  H03       -8.3940    6.9790   15.0940 H     501  1CD501      0.0463
      4  H04       -8.2150    6.0140   12.5820 H     501  1CD501      0.0746
      5  H05       -7.4620    8.4650   11.3520 H     501  1CD501      0.0316
      6  H06       -5.2720    8.1850   13.3250 H     501  1CD501      0.0461
      7  H08      -11.8650    9.3360    8.6540 H     501  1CD501      0.0639
      8  H13       -8.1990    8.5410   16.9160 H     501  1CD501      0.0522
      9  H07       -9.9550    6.1480   10.8120 H     501  1CD501      0.0655
     10  H09      -11.1210    6.9810    8.7880 H     501  1CD501      0.0619
     11  H10      -10.5300   14.3470   13.0110 H     501  1CD501      0.0625
     12  H11       -9.5550   15.7250   14.7630 H     501  1CD501      0.0618
     13  H12       -8.2720   14.6830   16.6510 H     501  1CD501      0.0626
     14  H14       -5.8260    8.0220   16.0550 H     501  1CD501      0.0445
     15  H15       -7.0640   10.5890   12.6290 H     501  1CD501      0.0245
     16  H16       -6.8020    6.3870   14.5260 H     501  1CD501      0.0463
     17  H17       -6.3600    7.1190   11.6670 H     501  1CD501      0.0316
     18  H18       -6.9200    9.5050   17.6680 H     501  1CD501      0.0522
     19  H19       -5.5190   10.6700   13.4890 H     501  1CD501      0.0245
     20  H20      -12.0630   11.5260    9.7860 H     501  1CD501      0.1690
     21  H21       -8.8990    9.8570   14.4890 H     501  1CD501      0.1871
     22  C1        -6.0960   10.0940   12.7580 C.3   501  1CD501     -0.0494
     23  N2        -7.0640    8.4960   14.4020 N.3   501  1CD501     -0.2943
     24  C3        -7.5960    7.1260   14.3600 C.3   501  1CD501      0.0363
     25  C4        -8.1190    7.0510   12.9200 C.3   501  1CD501      0.1143
     26  C5        -7.0470    7.8310   12.1410 C.3   501  1CD501      0.0009
     27  C6        -6.2620    8.6410   13.1900 C.3   501  1CD501      0.0112
     28  C7       -10.3780    9.4150   11.7260 C.ar  501  1CD501      0.1295
     29  C8        -9.9740    8.0710   11.7920 C.ar  501  1CD501      0.1482
     30  C9       -11.0660    9.8600   10.5960 C.ar  501  1CD501      0.0713
     31  N10      -10.0360   10.2850   12.7730 N.ar  501  1CD501     -0.2360
     32  C11      -10.2380    7.1940   10.7420 C.ar  501  1CD501     -0.0177
     33  O12       -9.4190    7.6560   12.9670 O.3   501  1CD501     -0.4853
     34  C13      -11.3290    8.9940    9.5350 C.ar  501  1CD501     -0.0360
     35  N14      -11.5150   11.1820   10.5620 N.ar  501  1CD501     -0.3190
     36  C15      -10.4220   11.5300   12.7590 C.ar  501  1CD501      0.1379
     37  C16      -10.9070    7.6620    9.6080 C.ar  501  1CD501     -0.0562
     38  C17      -11.3050   12.0550   11.6070 C.ar  501  1CD501      0.2754
     39  C18       -9.9320   12.4270   13.8620 C.ar  501  1CD501      0.0311
     40  O19      -11.8000   13.1720   11.6060 O.2   501  1CD501     -0.2656
     41  C20       -9.2350   11.8760   14.9390 C.ar  501  1CD501      0.0770
     42  C21      -10.0310   13.8300   13.8250 C.ar  501  1CD501     -0.0503
     43  C22       -8.6630   12.7020   15.9110 C.ar  501  1CD501      0.0661
     44  N23       -9.0260   10.5260   15.2610 N.ar  501  1CD501     -0.2934
     45  C24       -9.4600   14.6430   14.8320 C.ar  501  1CD501     -0.0603
     46  C25       -7.9020   11.8190   16.8040 C.ar  501  1CD501      0.2748
     47  C26       -8.7510   14.0780   15.8890 C.ar  501  1CD501     -0.0473
     48  N27       -8.1390   10.5360   16.3470 N.ar  501  1CD501     -0.2501
     49  C28       -7.4480    9.3150   16.7270 C.3   501  1CD501      0.0559
     50  O29       -7.1740   12.1960   17.7040 O.2   501  1CD501     -0.2656
     51  C30       -6.4190    8.8590   15.6660 C.3   501  1CD501      0.0189
@<TRIPOS>BOND
     1     1    51    1
     2     2    22    1
     3     3    24    1
     4     4    25    1
     5     5    26    1
     6     6    27    1
     7     7    34    1
     8     8    49    1
     9     9    32    1
    10    10    37    1
    11    11    42    1
    12    12    45    1
    13    13    47    1
    14    14    51    1
    15    15    22    1
    16    16    24    1
    17    17    26    1
    18    18    49    1
    19    19    22    1
    20    20    35    1
    21    21    44    1
    22    22    27    1
    23    23    24    1
    24    23    27    1
    25    23    51    1
    26    24    25    1
    27    25    26    1
    28    25    33    1
    29    26    27    1
    30    28    29   ar
    31    28    30   ar
    32    28    31   ar
    33    29    32   ar
    34    29    33    1
    35    30    34   ar
    36    30    35   ar
    37    31    36   ar
    38    32    37   ar
    39    34    37   ar
    40    35    38   ar
    41    36    38   ar
    42    36    39    1
    43    38    40    2
    44    39    41   ar
    45    39    42   ar
    46    41    43   ar
    47    41    44   ar
    48    42    45   ar
    49    43    46   ar
    50    43    47   ar
    51    44    48   ar
    52    45    47   ar
    53    46    48   ar
    54    46    50    2
    55    48    49    1
    56    49    51    1
