@<TRIPOS>MOLECULE
13.89135
 54 55 0 0 0
SMALL
GASTEIGER

@<TRIPOS>ATOM
      1  H06      -15.3840    0.1380   -7.5290 H     1215  13I1215     0.0569
      2  H07      -14.1640    2.9480   -7.7100 H     1215  13I1215     0.0569
      3  H01      -20.9920    3.5600   -5.7510 H     1215  13I1215     0.2922
      4  H02      -20.7330    6.1350   -3.4020 H     1215  13I1215     0.0691
      5  H03      -16.9740    3.0630   -6.2090 H     1215  13I1215     0.1490
      6  H04      -18.6430    2.0050   -8.2270 H     1215  13I1215     0.0465
      7  H05      -16.3290    2.8580   -8.6920 H     1215  13I1215     0.0322
      8  H08      -12.5380    2.2360   -6.2090 H     1215  13I1215     0.0307
      9  H09      -12.3250    0.1400   -5.0780 H     1215  13I1215     0.0268
     10  H10      -14.3910   -0.2580   -3.8880 H     1215  13I1215     0.0274
     11  H11      -13.4300    2.5050   -4.2630 H     1215  13I1215     0.0427
     12  H12      -17.1870    1.4410   -3.9180 H     1215  13I1215     0.0391
     13  H13      -14.7640    1.1770   -1.8640 H     1215  13I1215     0.0914
     14  H14      -13.9670    2.9060   -0.8180 H     1215  13I1215     0.2125
     15  H15      -12.0160   -0.4150   -0.9770 H     1215  13I1215     0.0558
     16  H16      -10.9720    1.1880    0.5940 H     1215  13I1215     0.0252
     17  H17      -18.1960    6.3130   -0.9640 H     1215  13I1215     0.2922
     18  H18      -11.6340    2.5520   -0.3280 H     1215  13I1215     0.0252
     19  H19      -17.9720    0.6300   -7.3450 H     1215  13I1215     0.0465
     20  H20      -16.6500    1.2810   -9.4090 H     1215  13I1215     0.0322
     21  H23      -12.2900    1.0040   -7.4160 H     1215  13I1215     0.0307
     22  H24      -13.4850   -0.6550   -6.1220 H     1215  13I1215     0.0268
     23  H25      -15.3480    0.5060   -5.1160 H     1215  13I1215     0.0274
     24  H26      -16.6440    2.0640   -2.3920 H     1215  13I1215     0.0391
     25  H27      -13.2630    0.6110   -0.2610 H     1215  13I1215     0.0558
     26  H28      -10.4330    1.5060   -1.0710 H     1215  13I1215     0.0252
     27  C01      -19.9140    4.4200   -4.4140 C.ar  1215  13I1215     0.1328
     28  C02      -19.9360    5.3980   -3.4290 C.ar  1215  13I1215     0.0235
     29  C03      -18.9280    5.4140   -2.4770 C.ar  1215  13I1215     0.1389
     30  C04      -17.9130    4.4450   -2.4820 C.ar  1215  13I1215     0.0868
     31  C05      -17.8770    3.4380   -3.4700 C.ar  1215  13I1215    -0.0028
     32  C06      -18.8710    3.4750   -4.4750 C.ar  1215  13I1215     0.0832
     33  C07      -18.9050    2.5370   -5.6210 C.2   1215  13I1215     0.2479
     34  O08      -19.9580    1.9590   -5.8720 O.2   1215  13I1215    -0.2701
     35  N09      -17.7790    2.4650   -6.4070 N.am  1215  13I1215    -0.3109
     36  C10      -17.7880    1.6740   -7.6250 C.3   1215  13I1215     0.0153
     37  C11      -16.5080    1.8020   -8.4550 C.3   1215  13I1215    -0.0191
     38  C12      -15.3160    1.1970   -7.7670 C.2   1215  13I1215    -0.0865
     39  C13      -14.2160    1.8930   -7.4410 C.2   1215  13I1215    -0.0879
     40  C14      -13.0220    1.3770   -6.6890 C.3   1215  13I1215    -0.0347
     41  C15      -13.2650    0.2970   -5.6230 C.3   1215  13I1215    -0.0488
     42  C16      -14.3830    0.5740   -4.6030 C.3   1215  13I1215    -0.0385
     43  C17      -14.2600    1.9170   -3.8540 C.3   1215  13I1215     0.0685
     44  C18      -15.5130    2.7600   -4.0990 C.2   1215  13I1215     0.1455
     45  C19      -16.8190    2.3510   -3.4320 C.3   1215  13I1215     0.0338
     46  O20      -15.5050    3.6600   -4.9480 O.2   1215  13I1215    -0.2966
     47  C21      -13.9580    1.7280   -2.3610 C.3   1215  13I1215     0.1656
     48  O22      -13.8170    3.0060   -1.7710 O.3   1215  13I1215    -0.3663
     49  O23      -12.7420    0.9940   -2.2550 O.3   1215  13I1215    -0.3511
     50  C24      -12.3940    0.6120   -0.9280 C.3   1215  13I1215     0.0478
     51  C25      -11.2960    1.5150   -0.3980 C.3   1215  13I1215    -0.0415
     52 CL        -16.7310    4.5170   -1.2140 Cl    1215  13I1215    -0.0794
     53  O27      -18.9870    6.4010   -1.5280 O.3   1215  13I1215    -0.5052
     54  O28      -20.9610    4.4320   -5.3000 O.3   1215  13I1215    -0.5059
@<TRIPOS>BOND
     1     1    38    1
     2     2    39    1
     3     3    54    1
     4     4    28    1
     5     5    35    1
     6     6    36    1
     7     7    37    1
     8     8    40    1
     9     9    41    1
    10    10    42    1
    11    11    43    1
    12    12    45    1
    13    13    47    1
    14    14    48    1
    15    15    50    1
    16    16    51    1
    17    17    53    1
    18    18    51    1
    19    19    36    1
    20    20    37    1
    21    21    40    1
    22    22    41    1
    23    23    42    1
    24    24    45    1
    25    25    50    1
    26    26    51    1
    27    27    28   ar
    28    27    32   ar
    29    27    54    1
    30    28    29   ar
    31    29    30   ar
    32    29    53    1
    33    30    31   ar
    34    30    52    1
    35    31    32   ar
    36    31    45    1
    37    32    33    1
    38    33    34    2
    39    33    35   am
    40    35    36    1
    41    36    37    1
    42    37    38    1
    43    38    39    2
    44    39    40    1
    45    40    41    1
    46    41    42    1
    47    42    43    1
    48    43    44    1
    49    43    47    1
    50    44    45    1
    51    44    46    2
    52    47    48    1
    53    47    49    1
    54    49    50    1
    55    50    51    1
