@<TRIPOS>MOLECULE
52.93751
 102 102 0 0 0
SMALL
GASTEIGER

@<TRIPOS>ATOM
      1 H           4.9490   45.9300   19.9700 H       1  UNL1        0.0614
      2 H           4.2760   43.0730   20.8760 H       1  UNL1        0.0573
      3 H           6.6120   46.9880   21.3590 H       1  UNL1        0.0618
      4 H           6.1120   44.0540   22.1490 H       1  UNL1        0.0617
      5 H           7.9320   45.0640   23.4170 H       1  UNL1        0.0618
      6 H           8.2450   48.0790   22.8720 H       1  UNL1        0.0618
      7 H           9.6730   46.0510   24.7510 H       1  UNL1        0.0618
      8 H           9.6840   49.1220   24.6390 H       1  UNL1        0.0618
      9 H          11.3160   46.9950   26.1800 H       1  UNL1        0.0618
     10 H          13.4990   49.3810   29.1470 H       1  UNL1        0.2102
     11 H           0.4290   47.2170   20.7930 H       1  UNL1        0.0439
     12 H           2.4840   49.3600   21.5650 H       1  UNL1        0.0602
     13 H           3.3200   47.1610   22.3240 H       1  UNL1        0.0315
     14 H           3.3520   49.1370   23.9840 H       1  UNL1        0.0595
     15 H           4.6200   47.2270   24.6780 H       1  UNL1        0.0315
     16 H           3.7080   48.8130   26.5960 H       1  UNL1        0.0595
     17 H           4.4170   45.9250   27.3660 H       1  UNL1        0.0315
     18 H           6.4310   46.9190   26.3590 H       1  UNL1        0.0595
     19 H           6.7980   45.7590   28.5000 H       1  UNL1        0.0315
     20 H           8.7620   47.1060   27.5560 H       1  UNL1        0.0595
     21 H           8.7980   45.6350   29.7250 H       1  UNL1        0.0315
     22 H          10.9720   46.2720   30.4810 H       1  UNL1        0.0595
     23 H          12.0470   48.1380   30.2870 H       1  UNL1        0.0318
     24 H          12.7000   47.7150   27.8990 H       1  UNL1        0.0641
     25 H           1.3020   49.7530   19.3070 H       1  UNL1        0.0274
     26 H           2.2350   43.4770   19.6660 H       1  UNL1        0.0343
     27 H           3.6120   45.7880   18.1810 H       1  UNL1        0.0734
     28 H           0.9520   44.4090   17.5620 H       1  UNL1        0.0265
     29 H           9.6530   50.3960   26.4360 H       1  UNL1        0.0275
     30 H          -0.8670   47.6870   18.6570 H       1  UNL1        0.0265
     31 H          -0.0320   50.2830   17.2530 H       1  UNL1        0.0265
     32 H          -2.1610   48.2060   16.5140 H       1  UNL1        0.0265
     33 H          -1.2700   50.7910   15.1230 H       1  UNL1        0.0263
     34 H          -3.0780   50.2790   13.5170 H       1  UNL1        0.0230
     35 H          -0.0680   48.6000   22.5650 H       1  UNL1        0.2098
     36 H           1.1190   49.2310   24.2160 H       1  UNL1        0.2098
     37 H           1.6310   47.8950   26.4280 H       1  UNL1        0.2098
     38 H           5.9720   49.0420   26.2610 H       1  UNL1        0.2098
     39 H           7.6150   49.1190   28.1480 H       1  UNL1        0.2098
     40 H          11.9580   45.6040   28.7040 H       1  UNL1        0.2098
     41 H          -3.4230   48.7520   14.3480 H       1  UNL1        0.0230
     42 H           1.7160   46.7540   22.9640 H       1  UNL1        0.0315
     43 H           3.1660   46.2680   24.9940 H       1  UNL1        0.0315
     44 H           4.2500   47.2570   28.4780 H       1  UNL1        0.0315
     45 H           6.3530   47.2140   29.4090 H       1  UNL1        0.0315
     46 H           8.7910   47.1680   30.6100 H       1  UNL1        0.0315
     47 H          10.5970   48.9190   29.8130 H       1  UNL1        0.0318
     48 H          -0.2160   49.5670   20.1810 H       1  UNL1        0.0274
     49 H           3.4900   43.2000   18.4560 H       1  UNL1        0.0343
     50 H           2.4170   44.3280   16.5540 H       1  UNL1        0.0265
     51 H          11.2830   51.0190   26.7370 H       1  UNL1        0.0275
     52 H           0.6290   47.9190   17.7480 H       1  UNL1        0.0265
     53 H          -1.5530   50.0300   18.1130 H       1  UNL1        0.0265
     54 H          -0.6290   48.4270   15.6680 H       1  UNL1        0.0265
     55 H          -2.8070   50.5650   15.9600 H       1  UNL1        0.0263
     56 H          -1.8760   48.9780   13.5080 H       1  UNL1        0.0230
     57 H           1.5680   45.8670   16.7970 H       1  UNL1        0.0265
     58 H          10.2290   50.5550   28.0830 H       1  UNL1        0.0275
     59 C           2.3000   47.2540   19.7440 C.2     1  UNL1        0.3130
     60 O           3.3570   47.7790   19.4240 O.2     1  UNL1       -0.2504
     61 C           1.2000   47.9490   20.5180 C.3     1  UNL1        0.0823
     62 C           1.7520   48.5810   21.8120 C.3     1  UNL1        0.0705
     63 C           2.4180   47.5780   22.7830 C.3     1  UNL1        0.0001
     64 C           2.7730   48.2180   24.1420 C.3     1  UNL1        0.0600
     65 C           3.5930   47.2770   25.0550 C.3     1  UNL1       -0.0006
     66 C           3.5590   47.7300   26.5260 C.3     1  UNL1        0.0599
     67 C           4.5480   47.0120   27.4480 C.3     1  UNL1       -0.0006
     68 C           6.0310   47.3700   27.2750 C.3     1  UNL1        0.0599
     69 C           6.8370   46.8550   28.4910 C.3     1  UNL1       -0.0006
     70 C           8.2990   47.3370   28.5160 C.3     1  UNL1        0.0599
     71 C           9.0820   46.6940   29.6630 C.3     1  UNL1       -0.0006
     72 C          10.6170   46.7420   29.5530 C.3     1  UNL1        0.0602
     73 C          11.2880   48.1310   29.4900 C.3     1  UNL1        0.0032
     74 C          12.0210   48.5250   28.1920 C.3     1  UNL1        0.0786
     75 C          11.1250   48.8990   27.0290 C.2     1  UNL1       -0.0445
     76 C          10.8650   47.9820   26.0770 C.2     1  UNL1       -0.0604
     77 C           9.9590   48.1230   24.9610 C.2     1  UNL1       -0.0617
     78 C           9.4130   47.0430   24.3830 C.2     1  UNL1       -0.0618
     79 C           0.5460   49.0180   19.6140 C.3     1  UNL1       -0.0377
     80 C           8.4310   47.1090   23.3290 C.2     1  UNL1       -0.0618
     81 C           7.7460   46.0240   22.9380 C.2     1  UNL1       -0.0618
     82 C           6.7420   46.0540   21.9030 C.2     1  UNL1       -0.0618
     83 C           5.9890   44.9860   21.6020 C.2     1  UNL1       -0.0621
     84 C           4.9960   45.0160   20.5550 C.2     1  UNL1       -0.0656
     85 C           4.1850   43.9830   20.2840 C.2     1  UNL1       -0.0805
     86 C           3.1310   43.9150   19.2070 C.3     1  UNL1        0.0026
     87 C           2.7300   45.2300   18.5120 C.3     1  UNL1        0.1037
     88 C           1.8720   44.9350   17.2830 C.3     1  UNL1       -0.0274
     89 C          10.5390   50.2880   27.0670 C.3     1  UNL1       -0.0411
     90 C          -0.1180   48.4320   18.3630 C.3     1  UNL1       -0.0522
     91 O           1.9000   45.9960   19.4140 O.3     1  UNL1       -0.4611
     92 C          -0.7790   49.5260   17.5210 C.3     1  UNL1       -0.0530
     93 C          -1.4000   48.9490   16.2480 C.3     1  UNL1       -0.0533
     94 C          -2.0290   50.0460   15.3900 C.3     1  UNL1       -0.0559
     95 C          -2.6360   49.4770   14.1170 C.3     1  UNL1       -0.0653
     96 O           0.6700   49.2370   22.4980 O.3     1  UNL1       -0.3909
     97 O           1.5630   48.5880   24.8120 O.3     1  UNL1       -0.3916
     98 O           2.2520   47.4540   27.0490 O.3     1  UNL1       -0.3916
     99 O           6.2000   48.7850   27.1720 O.3     1  UNL1       -0.3916
    100 O           8.3170   48.7480   28.7260 O.3     1  UNL1       -0.3916
    101 O          11.0420   45.8670   28.5100 O.3     1  UNL1       -0.3916
    102 O          12.8720   49.6480   28.4560 O.3     1  UNL1       -0.3874
@<TRIPOS>BOND
     1    56    95    1
     2    34    95    1
     3    95    41    1
     4    95    94    1
     5    33    94    1
     6    94    55    1
     7    94    93    1
     8    54    93    1
     9    93    32    1
    10    93    92    1
    11    50    88    1
    12    57    88    1
    13    31    92    1
    14    88    28    1
    15    88    87    1
    16    92    53    1
    17    92    90    1
    18    52    90    1
    19    27    87    1
    20    90    30    1
    21    90    79    1
    22    49    86    1
    23    87    86    1
    24    87    91    1
    25    86    26    1
    26    86    85    1
    27    25    79    1
    28    91    59    1
    29    60    59    2
    30    79    48    1
    31    79    61    1
    32    59    61    1
    33     1    84    1
    34    85    84    2
    35    85     2    1
    36    61    11    1
    37    61    62    1
    38    84    83    1
    39     3    82    1
    40    12    62    1
    41    83    82    2
    42    83     4    1
    43    62    96    1
    44    62    63    1
    45    82    81    1
    46    13    63    1
    47    96    35    1
    48    63    42    1
    49    63    64    1
    50     6    80    1
    51    81    80    2
    52    81     5    1
    53    80    78    1
    54    14    64    1
    55    64    97    1
    56    64    65    1
    57    36    97    1
    58    78     7    1
    59    78    77    2
    60     8    77    1
    61    15    65    1
    62    77    76    1
    63    43    65    1
    64    65    66    1
    65    76     9    1
    66    76    75    2
    67    38    99    1
    68    18    68    1
    69    37    98    1
    70    29    89    1
    71    66    16    1
    72    66    98    1
    73    66    67    1
    74    51    89    1
    75    75    89    1
    76    75    74    1
    77    89    58    1
    78    99    68    1
    79    68    67    1
    80    68    69    1
    81    17    67    1
    82    67    44    1
    83    20    70    1
    84    24    74    1
    85    39   100    1
    86    74   102    1
    87    74    73    1
    88   102    10    1
    89    69    19    1
    90    69    70    1
    91    69    45    1
    92   101    40    1
    93   101    72    1
    94    70   100    1
    95    70    71    1
    96    73    72    1
    97    73    47    1
    98    73    23    1
    99    72    71    1
   100    72    22    1
   101    71    21    1
   102    71    46    1
