@<TRIPOS>MOLECULE
41.48880
 102 102 0 0 0
SMALL
GASTEIGER

@<TRIPOS>ATOM
      1 H           7.1620   44.7740   20.8130 H       1  UNL1        0.0614
      2 H           4.4390   45.1840   22.1850 H       1  UNL1        0.0573
      3 H           8.7210   46.5980   21.3800 H       1  UNL1        0.0618
      4 H           6.1280   46.7040   23.0310 H       1  UNL1        0.0617
      5 H           7.6230   48.5300   23.5630 H       1  UNL1        0.0618
      6 H          10.0280   48.6700   21.6490 H       1  UNL1        0.0618
      7 H           8.8230   50.6090   23.7660 H       1  UNL1        0.0618
      8 H          11.0110   50.9240   21.6350 H       1  UNL1        0.0618
      9 H           9.6180   52.8160   23.6630 H       1  UNL1        0.0618
     10 H          11.4780   56.5500   23.5270 H       1  UNL1        0.2102
     11 H           1.5390   46.8130   20.9440 H       1  UNL1        0.0439
     12 H           2.3610   49.1160   19.1040 H       1  UNL1        0.0602
     13 H           3.9180   48.6340   21.0300 H       1  UNL1        0.0315
     14 H           3.4560   51.0510   20.3320 H       1  UNL1        0.0595
     15 H           5.1590   50.6160   22.0590 H       1  UNL1        0.0315
     16 H           4.3750   53.0570   21.7260 H       1  UNL1        0.0595
     17 H           6.3700   52.5810   23.1350 H       1  UNL1        0.0315
     18 H           4.5180   54.3920   24.7800 H       1  UNL1        0.0595
     19 H           5.0890   56.2920   23.6910 H       1  UNL1        0.0315
     20 H           6.6960   56.7140   21.9750 H       1  UNL1        0.0595
     21 H           6.7870   54.2730   21.1360 H       1  UNL1        0.0315
     22 H           9.0510   54.3400   20.3340 H       1  UNL1        0.0595
     23 H           9.5930   56.8490   22.0050 H       1  UNL1        0.0318
     24 H           9.9280   55.0120   23.5810 H       1  UNL1        0.0641
     25 H          -0.3690   47.1640   19.4890 H       1  UNL1        0.0274
     26 H           3.9110   43.0920   21.1180 H       1  UNL1        0.0343
     27 H           4.7950   44.8930   18.7830 H       1  UNL1        0.0734
     28 H           2.7030   42.6600   18.8760 H       1  UNL1        0.0265
     29 H          12.3030   52.5030   20.9890 H       1  UNL1        0.0275
     30 H           1.5780   46.9610   17.1270 H       1  UNL1        0.0265
     31 H          -1.4720   47.2220   17.2270 H       1  UNL1        0.0265
     32 H           0.4680   47.0150   14.8620 H       1  UNL1        0.0265
     33 H          -2.5830   47.3080   14.9570 H       1  UNL1        0.0263
     34 H          -2.4430   47.1250   12.4950 H       1  UNL1        0.0230
     35 H           0.3000   48.9380   21.0600 H       1  UNL1        0.2098
     36 H           1.2410   50.9490   20.9730 H       1  UNL1        0.2098
     37 H           2.3170   52.5270   22.7680 H       1  UNL1        0.2098
     38 H           6.3190   53.8080   25.8510 H       1  UNL1        0.2098
     39 H           7.5010   55.6330   24.4260 H       1  UNL1        0.2098
     40 H           8.8950   56.3990   19.3540 H       1  UNL1        0.2098
     41 H          -0.6740   47.0720   12.5710 H       1  UNL1        0.0230
     42 H           2.5330   48.7450   22.1310 H       1  UNL1        0.0315
     43 H           3.9020   50.4800   23.3030 H       1  UNL1        0.0315
     44 H           5.3600   52.1450   24.4770 H       1  UNL1        0.0315
     45 H           4.7750   55.2300   22.3340 H       1  UNL1        0.0315
     46 H           7.9110   53.9610   22.4640 H       1  UNL1        0.0315
     47 H          10.6330   56.1470   20.8340 H       1  UNL1        0.0318
     48 H           0.4710   45.7050   19.0070 H       1  UNL1        0.0274
     49 H           5.4650   43.0030   20.2880 H       1  UNL1        0.0343
     50 H           4.2780   42.5720   18.0520 H       1  UNL1        0.0265
     51 H          12.8700   54.1020   21.4210 H       1  UNL1        0.0275
     52 H           0.6930   48.4150   17.5930 H       1  UNL1        0.0265
     53 H          -0.5910   45.7670   16.7550 H       1  UNL1        0.0265
     54 H          -0.3980   48.4770   15.3360 H       1  UNL1        0.0265
     55 H          -1.7190   45.8440   14.4840 H       1  UNL1        0.0263
     56 H          -1.5400   48.5450   13.0480 H       1  UNL1        0.0230
     57 H           3.0280   43.7120   17.5060 H       1  UNL1        0.0265
     58 H          11.5670   53.9160   20.2310 H       1  UNL1        0.0275
     59 C           3.0070   46.4830   19.4490 C.2     1  UNL1        0.3130
     60 O           3.9470   47.0360   18.8950 O.2     1  UNL1       -0.2504
     61 C           1.7540   47.1900   19.9350 C.3     1  UNL1        0.0823
     62 C           1.9740   48.7150   20.0480 C.3     1  UNL1        0.0705
     63 C           2.9440   49.1110   21.1820 C.3     1  UNL1        0.0001
     64 C           3.1350   50.6380   21.2960 C.3     1  UNL1        0.0600
     65 C           4.1780   50.9930   22.3720 C.3     1  UNL1       -0.0006
     66 C           4.2560   52.5050   22.6640 C.3     1  UNL1        0.0599
     67 C           5.4160   52.8230   23.6130 C.3     1  UNL1       -0.0006
     68 C           5.4240   54.2540   24.1770 C.3     1  UNL1        0.0599
     69 C           5.4730   55.4100   23.1590 C.3     1  UNL1       -0.0006
     70 C           6.8500   55.8310   22.6050 C.3     1  UNL1        0.0599
     71 C           7.5370   54.7340   21.7910 C.3     1  UNL1       -0.0006
     72 C           8.6940   55.2090   20.8990 C.3     1  UNL1        0.0602
     73 C           9.8900   55.8740   21.5970 C.3     1  UNL1        0.0032
     74 C          10.5750   55.0480   22.6980 C.3     1  UNL1        0.0786
     75 C          10.9510   53.6370   22.2730 C.2     1  UNL1       -0.0445
     76 C          10.3190   52.5970   22.8550 C.2     1  UNL1       -0.0604
     77 C          10.3580   51.2100   22.4530 C.2     1  UNL1       -0.0617
     78 C           9.5080   50.3130   22.9730 C.2     1  UNL1       -0.0618
     79 C           0.5610   46.7990   19.0350 C.3     1  UNL1       -0.0377
     80 C           9.3480   48.9790   22.4400 C.2     1  UNL1       -0.0618
     81 C           8.3230   48.1930   22.8010 C.2     1  UNL1       -0.0618
     82 C           8.0150   46.9530   22.1270 C.2     1  UNL1       -0.0618
     83 C           6.8490   46.3180   22.3130 C.2     1  UNL1       -0.0621
     84 C           6.4370   45.1930   21.5080 C.2     1  UNL1       -0.0656
     85 C           5.1760   44.7390   21.5190 C.2     1  UNL1       -0.0805
     86 C           4.6580   43.6870   20.5780 C.3     1  UNL1        0.0026
     87 C           4.0320   44.3210   19.3230 C.3     1  UNL1        0.1037
     88 C           3.4860   43.2490   18.3870 C.3     1  UNL1       -0.0274
     89 C          11.9720   53.5280   21.1700 C.3     1  UNL1       -0.0411
     90 C           0.6550   47.3200   17.5960 C.3     1  UNL1       -0.0522
     91 O           2.9160   45.1490   19.7180 O.3     1  UNL1       -0.4611
     92 C          -0.5450   46.8630   16.7630 C.3     1  UNL1       -0.0530
     93 C          -0.4540   47.3820   15.3270 C.3     1  UNL1       -0.0533
     94 C          -1.6590   46.9380   14.4980 C.3     1  UNL1       -0.0559
     95 C          -1.5710   47.4510   13.0700 C.3     1  UNL1       -0.0653
     96 O           0.7150   49.3670   20.2880 O.3     1  UNL1       -0.3909
     97 O           1.8930   51.2600   21.6400 O.3     1  UNL1       -0.3916
     98 O           3.0470   52.9390   23.2840 O.3     1  UNL1       -0.3916
     99 O           6.5320   54.3730   25.0840 O.3     1  UNL1       -0.3916
    100 O           7.7030   56.2390   23.6770 O.3     1  UNL1       -0.3916
    101 O           8.1590   56.1110   19.9220 O.3     1  UNL1       -0.3916
    102 O          11.7660   55.7210   23.1060 O.3     1  UNL1       -0.3874
@<TRIPOS>BOND
     1    34    95    1
     2    41    95    1
     3    56    95    1
     4    95    94    1
     5    55    94    1
     6    94    33    1
     7    94    93    1
     8    32    93    1
     9    93    54    1
    10    93    92    1
    11    53    92    1
    12    92    31    1
    13    92    90    1
    14    30    90    1
    15    57    88    1
    16    52    90    1
    17    90    79    1
    18    50    88    1
    19    88    28    1
    20    88    87    1
    21    27    87    1
    22    60    59    2
    23    48    79    1
    24    79    25    1
    25    79    61    1
    26    12    62    1
    27    87    91    1
    28    87    86    1
    29    40   101    1
    30    59    91    1
    31    59    61    1
    32   101    72    1
    33    61    62    1
    34    61    11    1
    35    62    96    1
    36    62    63    1
    37    58    89    1
    38    96    35    1
    39    49    86    1
    40    14    64    1
    41    22    72    1
    42    86    26    1
    43    86    85    1
    44     1    84    1
    45    47    73    1
    46    72    73    1
    47    72    71    1
    48    36    97    1
    49    29    89    1
    50    13    63    1
    51    21    71    1
    52    89    51    1
    53    89    75    1
    54    63    64    1
    55    63    42    1
    56    64    97    1
    57    64    65    1
    58     3    82    1
    59    84    85    2
    60    84    83    1
    61    85     2    1
    62    73    23    1
    63    73    74    1
    64     8    77    1
    65     6    80    1
    66    16    66    1
    67    71    46    1
    68    71    70    1
    69    20    70    1
    70    15    65    1
    71    82    83    2
    72    82    81    1
    73    75    74    1
    74    75    76    2
    75    83     4    1
    76    45    69    1
    77    65    66    1
    78    65    43    1
    79    80    81    2
    80    80    78    1
    81    77    76    1
    82    77    78    2
    83    70    69    1
    84    70   100    1
    85    66    98    1
    86    66    67    1
    87    74   102    1
    88    74    24    1
    89    37    98    1
    90    81     5    1
    91    76     9    1
    92    78     7    1
    93   102    10    1
    94    17    67    1
    95    69    19    1
    96    69    68    1
    97    67    68    1
    98    67    44    1
    99   100    39    1
   100    68    18    1
   101    68    99    1
   102    99    38    1
