@<TRIPOS>MOLECULE
42.21209
 102 102 0 0 0
SMALL
GASTEIGER

@<TRIPOS>ATOM
      1 H          -3.1760   41.7630   21.9240 H       1  UNL1        0.0614
      2 H          -0.9930   41.5370   19.7690 H       1  UNL1        0.0573
      3 H          -0.6640   39.3030   20.9970 H       1  UNL1        0.0618
      4 H          -3.7350   39.5210   21.1080 H       1  UNL1        0.0617
      5 H          -2.9800   37.2210   20.9920 H       1  UNL1        0.0618
      6 H           0.0740   36.9360   21.2480 H       1  UNL1        0.0618
      7 H          -2.3210   34.9460   21.2370 H       1  UNL1        0.0618
      8 H           0.6340   34.6210   22.0030 H       1  UNL1        0.0618
      9 H          -1.8650   32.7710   21.9530 H       1  UNL1        0.0618
     10 H          -0.6420   28.8990   22.8920 H       1  UNL1        0.2102
     11 H           1.2220   42.6360   24.4440 H       1  UNL1        0.0439
     12 H           1.8270   39.8290   23.3660 H       1  UNL1        0.0602
     13 H          -0.6350   40.5050   23.5530 H       1  UNL1        0.0315
     14 H           0.1390   38.1070   23.8910 H       1  UNL1        0.0595
     15 H          -2.3080   38.7080   23.9960 H       1  UNL1        0.0315
     16 H          -1.4190   36.3140   24.4130 H       1  UNL1        0.0595
     17 H          -3.8970   36.9740   24.1660 H       1  UNL1        0.0315
     18 H          -4.8740   34.9190   24.8650 H       1  UNL1        0.0595
     19 H          -3.8700   34.7270   27.1290 H       1  UNL1        0.0315
     20 H          -3.7280   32.3830   27.3320 H       1  UNL1        0.0595
     21 H          -3.2980   32.0270   24.3220 H       1  UNL1        0.0315
     22 H          -1.1130   32.6750   25.4150 H       1  UNL1        0.0595
     23 H          -1.3690   29.6340   25.0570 H       1  UNL1        0.0318
     24 H          -1.8380   30.7470   22.9100 H       1  UNL1        0.0641
     25 H           3.7340   41.6750   22.9620 H       1  UNL1        0.0274
     26 H          -2.0510   43.8390   21.5550 H       1  UNL1        0.0343
     27 H           0.6970   43.4540   20.2140 H       1  UNL1        0.0734
     28 H          -0.3930   45.8120   21.8320 H       1  UNL1        0.0265
     29 H           1.8260   33.0520   22.8190 H       1  UNL1        0.0275
     30 H           3.0040   44.4140   24.1290 H       1  UNL1        0.0265
     31 H           5.5230   43.4290   22.6830 H       1  UNL1        0.0265
     32 H           4.8130   46.1770   23.8410 H       1  UNL1        0.0265
     33 H           7.2950   45.1910   22.3310 H       1  UNL1        0.0263
     34 H           8.1700   47.4620   22.7580 H       1  UNL1        0.0230
     35 H           1.9770   40.8700   26.0090 H       1  UNL1        0.2098
     36 H           1.3340   38.6720   25.8270 H       1  UNL1        0.2098
     37 H          -0.6490   37.0400   26.5480 H       1  UNL1        0.2098
     38 H          -2.2260   34.4090   24.0190 H       1  UNL1        0.2098
     39 H          -5.7190   33.1250   26.7150 H       1  UNL1        0.2098
     40 H          -0.4250   31.5100   27.1990 H       1  UNL1        0.2098
     41 H           6.6440   47.9390   23.5210 H       1  UNL1        0.0230
     42 H          -0.3560   40.7910   25.2800 H       1  UNL1        0.0315
     43 H          -2.1470   38.9610   25.7450 H       1  UNL1        0.0315
     44 H          -4.0080   36.9540   25.9330 H       1  UNL1        0.0315
     45 H          -2.3220   34.2570   26.4320 H       1  UNL1        0.0315
     46 H          -3.5280   30.7860   25.5190 H       1  UNL1        0.0315
     47 H           0.1360   30.4540   25.2310 H       1  UNL1        0.0318
     48 H           3.6710   42.0680   24.6780 H       1  UNL1        0.0274
     49 H          -1.7640   44.0050   19.8170 H       1  UNL1        0.0343
     50 H          -0.0670   45.8210   20.0830 H       1  UNL1        0.0265
     51 H           1.8870   31.3150   23.0240 H       1  UNL1        0.0275
     52 H           3.1190   44.0420   22.4070 H       1  UNL1        0.0265
     53 H           5.4270   43.8200   24.4020 H       1  UNL1        0.0265
     54 H           4.8720   45.7920   22.1200 H       1  UNL1        0.0265
     55 H           7.2410   45.5690   24.0540 H       1  UNL1        0.0263
     56 H           6.6910   47.5590   21.7880 H       1  UNL1        0.0230
     57 H           1.2560   45.6270   21.2540 H       1  UNL1        0.0265
     58 H           1.3940   32.3510   24.3780 H       1  UNL1        0.0275
     59 C           1.1530   42.2030   22.3340 C.2     1  UNL1        0.3130
     60 O           1.3670   41.4730   21.3760 O.2     1  UNL1       -0.2504
     61 C           1.7170   41.9720   23.7240 C.3     1  UNL1        0.0823
     62 C           1.4580   40.5090   24.1430 C.3     1  UNL1        0.0705
     63 C          -0.0290   40.2050   24.4120 C.3     1  UNL1        0.0001
     64 C          -0.2660   38.7120   24.7100 C.3     1  UNL1        0.0600
     65 C          -1.7600   38.3920   24.8890 C.3     1  UNL1       -0.0006
     66 C          -1.9900   36.8900   25.1470 C.3     1  UNL1        0.0599
     67 C          -3.4800   36.5210   25.0750 C.3     1  UNL1       -0.0006
     68 C          -3.7920   35.0100   25.0130 C.3     1  UNL1        0.0599
     69 C          -3.4030   34.2220   26.2730 C.3     1  UNL1       -0.0006
     70 C          -3.8480   32.7470   26.3050 C.3     1  UNL1        0.0599
     71 C          -3.0920   31.7840   25.3700 C.3     1  UNL1       -0.0006
     72 C          -1.5810   31.7100   25.6290 C.3     1  UNL1        0.0602
     73 C          -0.8820   30.5940   24.8390 C.3     1  UNL1        0.0032
     74 C          -0.8220   30.7920   23.3170 C.3     1  UNL1        0.0786
     75 C          -0.1250   32.0710   22.8820 C.2     1  UNL1       -0.0445
     76 C          -0.8250   32.9980   22.1980 C.2     1  UNL1       -0.0604
     77 C          -0.3960   34.3290   21.8230 C.2     1  UNL1       -0.0617
     78 C          -1.2780   35.2340   21.3730 C.2     1  UNL1       -0.0618
     79 C           3.2260   42.3050   23.7040 C.3     1  UNL1       -0.0377
     80 C          -0.9670   36.6320   21.1780 C.2     1  UNL1       -0.0618
     81 C          -1.9400   37.5430   21.0230 C.2     1  UNL1       -0.0618
     82 C          -1.6990   38.9670   20.9980 C.2     1  UNL1       -0.0618
     83 C          -2.7010   39.8580   21.0580 C.2     1  UNL1       -0.0621
     84 C          -2.5160   41.2830   21.2040 C.2     1  UNL1       -0.0656
     85 C          -1.6290   42.0140   20.5150 C.2     1  UNL1       -0.0805
     86 C          -1.4250   43.4890   20.7240 C.3     1  UNL1        0.0026
     87 C           0.0440   43.8490   21.0020 C.3     1  UNL1        0.1037
     88 C           0.2150   45.3660   21.0370 C.3     1  UNL1       -0.0274
     89 C           1.3190   32.2100   23.2950 C.3     1  UNL1       -0.0411
     90 C           3.5140   43.7790   23.3950 C.3     1  UNL1       -0.0522
     91 O           0.4500   43.3700   22.3030 O.3     1  UNL1       -0.4611
     92 C           5.0160   44.0690   23.4160 C.3     1  UNL1       -0.0530
     93 C           5.3020   45.5370   23.0960 C.3     1  UNL1       -0.0533
     94 C           6.8040   45.8220   23.0820 C.3     1  UNL1       -0.0559
     95 C           7.0910   47.2820   22.7690 C.3     1  UNL1       -0.0653
     96 O           2.1920   40.1940   25.3380 O.3     1  UNL1       -0.3909
     97 O           0.4170   38.3260   25.9070 O.3     1  UNL1       -0.3916
     98 O          -1.4960   36.5530   26.4430 O.3     1  UNL1       -0.3916
     99 O          -3.1830   34.4600   23.8520 O.3     1  UNL1       -0.3916
    100 O          -5.2450   32.6490   26.0110 O.3     1  UNL1       -0.3916
    101 O          -1.3800   31.4450   27.0220 O.3     1  UNL1       -0.3916
    102 O          -0.1080   29.6970   22.7440 O.3     1  UNL1       -0.3874
@<TRIPOS>BOND
     1     2    85    1
     2    49    86    1
     3    50    88    1
     4    27    87    1
     5    85    86    1
     6    85    84    2
     7    86    87    1
     8    86    26    1
     9     5    81    1
    10     3    82    1
    11    82    81    1
    12    82    83    2
    13    87    88    1
    14    87    91    1
    15    81    80    2
    16    88    57    1
    17    88    28    1
    18    83     4    1
    19    83    84    1
    20    80     6    1
    21    80    78    1
    22    84     1    1
    23     7    78    1
    24    78    77    2
    25    60    59    2
    26    56    95    1
    27    77     8    1
    28    77    76    1
    29     9    76    1
    30    54    93    1
    31    76    75    2
    32    91    59    1
    33    33    94    1
    34    59    61    1
    35    52    90    1
    36    31    92    1
    37   102    10    1
    38   102    74    1
    39    34    95    1
    40    95    94    1
    41    95    41    1
    42    29    89    1
    43    75    89    1
    44    75    74    1
    45    24    74    1
    46    25    79    1
    47    51    89    1
    48    94    93    1
    49    94    55    1
    50    93    92    1
    51    93    32    1
    52    89    58    1
    53    74    73    1
    54    12    62    1
    55    90    92    1
    56    90    79    1
    57    90    30    1
    58    92    53    1
    59    13    63    1
    60    79    61    1
    61    79    48    1
    62    61    62    1
    63    61    11    1
    64    99    38    1
    65    99    68    1
    66    14    64    1
    67    15    65    1
    68    62    63    1
    69    62    96    1
    70    17    67    1
    71    21    71    1
    72    63    64    1
    73    63    42    1
    74    16    66    1
    75    64    65    1
    76    64    97    1
    77    73    23    1
    78    73    47    1
    79    73    72    1
    80    18    68    1
    81    65    66    1
    82    65    43    1
    83    68    67    1
    84    68    69    1
    85    67    66    1
    86    67    44    1
    87    66    98    1
    88    96    35    1
    89    71    46    1
    90    71    72    1
    91    71    70    1
    92    22    72    1
    93    72   101    1
    94    36    97    1
    95   100    70    1
    96   100    39    1
    97    69    70    1
    98    69    45    1
    99    69    19    1
   100    70    20    1
   101    98    37    1
   102   101    40    1
