@<TRIPOS>MOLECULE
44.32243
 102 102 0 0 0
SMALL
GASTEIGER

@<TRIPOS>ATOM
      1 H          -2.0650   42.4440   21.1880 H       1  UNL1        0.0614
      2 H          -0.9990   42.8480   18.3300 H       1  UNL1        0.0573
      3 H          -3.0140   40.1650   21.4620 H       1  UNL1        0.0618
      4 H          -2.4340   40.8740   18.5250 H       1  UNL1        0.0617
      5 H          -3.6060   38.7520   18.7540 H       1  UNL1        0.0618
      6 H          -3.5220   37.7340   21.6570 H       1  UNL1        0.0618
      7 H          -4.3360   36.4460   18.9430 H       1  UNL1        0.0618
      8 H          -3.5590   35.2590   21.6640 H       1  UNL1        0.0618
      9 H          -4.7200   34.0810   19.0620 H       1  UNL1        0.0618
     10 H          -4.4790   29.8350   19.5970 H       1  UNL1        0.2102
     11 H           1.0360   41.4970   23.5590 H       1  UNL1        0.0439
     12 H           2.9780   41.0390   21.2410 H       1  UNL1        0.0602
     13 H           0.6300   40.6640   20.5630 H       1  UNL1        0.0315
     14 H           2.4440   38.9330   19.9160 H       1  UNL1        0.0595
     15 H           0.2980   38.8400   18.7930 H       1  UNL1        0.0315
     16 H           1.7860   36.6590   18.7810 H       1  UNL1        0.0595
     17 H           0.0910   36.9160   17.0850 H       1  UNL1        0.0315
     18 H           0.8550   34.4570   17.6480 H       1  UNL1        0.0595
     19 H          -0.2990   35.0590   15.5520 H       1  UNL1        0.0315
     20 H          -1.3800   33.0080   14.9180 H       1  UNL1        0.0595
     21 H          -1.3000   31.9800   17.7880 H       1  UNL1        0.0315
     22 H          -3.2250   33.6610   17.4370 H       1  UNL1        0.0595
     23 H          -4.1700   30.7480   17.4660 H       1  UNL1        0.0318
     24 H          -2.6730   31.0900   19.3800 H       1  UNL1        0.0641
     25 H           3.2410   41.7390   24.4790 H       1  UNL1        0.0274
     26 H          -0.9720   44.5780   20.8870 H       1  UNL1        0.0343
     27 H           1.3780   43.9800   19.0000 H       1  UNL1        0.0734
     28 H           1.3080   45.8290   21.4340 H       1  UNL1        0.0265
     29 H          -2.5930   33.4560   22.1460 H       1  UNL1        0.0275
     30 H           3.8310   43.7150   22.2100 H       1  UNL1        0.0265
     31 H           5.4840   42.9130   24.6580 H       1  UNL1        0.0265
     32 H           6.0590   44.8650   22.3640 H       1  UNL1        0.0265
     33 H           7.7330   44.0770   24.8100 H       1  UNL1        0.0263
     34 H           9.3300   45.7660   23.9650 H       1  UNL1        0.0230
     35 H           2.3880   39.5920   23.6140 H       1  UNL1        0.2098
     36 H           2.6660   38.1270   22.0170 H       1  UNL1        0.2098
     37 H           1.1140   36.2010   20.9540 H       1  UNL1        0.2098
     38 H          -0.4650   34.5080   19.5600 H       1  UNL1        0.2098
     39 H           0.8110   32.9480   15.1120 H       1  UNL1        0.2098
     40 H          -4.7660   33.0780   15.8840 H       1  UNL1        0.2098
     41 H           8.3200   46.0470   22.5370 H       1  UNL1        0.0230
     42 H           0.3500   39.6940   22.0200 H       1  UNL1        0.0315
     43 H          -0.4780   38.1190   20.2140 H       1  UNL1        0.0315
     44 H          -1.2150   36.6270   18.2440 H       1  UNL1        0.0315
     45 H          -1.8700   34.9750   16.3320 H       1  UNL1        0.0315
     46 H          -1.8410   31.1500   16.3600 H       1  UNL1        0.0315
     47 H          -5.1490   32.0950   17.9040 H       1  UNL1        0.0318
     48 H           2.5070   43.3240   24.3320 H       1  UNL1        0.0274
     49 H          -0.7960   45.1420   19.2430 H       1  UNL1        0.0343
     50 H           1.4250   46.3180   19.7360 H       1  UNL1        0.0265
     51 H          -1.6690   32.3120   21.1810 H       1  UNL1        0.0275
     52 H           4.6170   42.1520   22.4440 H       1  UNL1        0.0265
     53 H           4.6960   44.4760   24.4320 H       1  UNL1        0.0265
     54 H           6.8500   43.3040   22.5930 H       1  UNL1        0.0265
     55 H           6.9390   45.6370   24.5830 H       1  UNL1        0.0263
     56 H           9.1190   44.4790   22.7650 H       1  UNL1        0.0230
     57 H           2.7390   45.4000   20.5050 H       1  UNL1        0.0265
     58 H          -3.0940   31.7730   22.0930 H       1  UNL1        0.0275
     59 C           1.1060   43.0260   22.1270 C.2     1  UNL1        0.3130
     60 O           0.3580   43.8130   22.6950 O.2     1  UNL1       -0.2504
     61 C           1.7940   41.8920   22.8680 C.3     1  UNL1        0.0823
     62 C           2.2570   40.7060   21.9960 C.3     1  UNL1        0.0705
     63 C           1.1030   39.9830   21.2750 C.3     1  UNL1        0.0001
     64 C           1.5650   38.7140   20.5350 C.3     1  UNL1        0.0600
     65 C           0.4520   38.1540   19.6340 C.3     1  UNL1       -0.0006
     66 C           0.7490   36.7330   19.1290 C.3     1  UNL1        0.0599
     67 C          -0.1900   36.3410   17.9760 C.3     1  UNL1       -0.0006
     68 C          -0.1750   34.8300   17.6750 C.3     1  UNL1        0.0599
     69 C          -0.8660   34.5360   16.3350 C.3     1  UNL1       -0.0006
     70 C          -0.9600   33.0530   15.9310 C.3     1  UNL1        0.0599
     71 C          -1.8100   32.1410   16.8340 C.3     1  UNL1       -0.0006
     72 C          -3.2410   32.6470   17.0360 C.3     1  UNL1        0.0602
     73 C          -4.1080   31.7440   17.9270 C.3     1  UNL1        0.0032
     74 C          -3.6500   31.5880   19.3870 C.3     1  UNL1        0.0786
     75 C          -3.5490   32.8220   20.2730 C.2     1  UNL1       -0.0445
     76 C          -4.1070   34.0090   19.9570 C.2     1  UNL1       -0.0604
     77 C          -3.9110   35.2710   20.6380 C.2     1  UNL1       -0.0617
     78 C          -4.0450   36.4390   19.9920 C.2     1  UNL1       -0.0618
     79 C           2.9170   42.4900   23.7470 C.3     1  UNL1       -0.0377
     80 C          -3.6950   37.7110   20.5830 C.2     1  UNL1       -0.0618
     81 C          -3.4840   38.8050   19.8350 C.2     1  UNL1       -0.0618
     82 C          -3.0000   40.0520   20.3810 C.2     1  UNL1       -0.0618
     83 C          -2.4800   41.0140   19.6030 C.2     1  UNL1       -0.0621
     84 C          -1.9100   42.2290   20.1320 C.2     1  UNL1       -0.0656
     85 C          -1.1730   43.0640   19.3820 C.2     1  UNL1       -0.0805
     86 C          -0.5340   44.3170   19.9180 C.3     1  UNL1        0.0026
     87 C           1.0010   44.2040   20.0060 C.3     1  UNL1        0.1037
     88 C           1.6520   45.5150   20.4440 C.3     1  UNL1       -0.0274
     89 C          -2.6830   32.5890   21.4890 C.3     1  UNL1       -0.0411
     90 C           4.1400   42.9870   22.9680 C.3     1  UNL1       -0.0522
     91 O           1.4780   43.1050   20.8260 O.3     1  UNL1       -0.4611
     92 C           5.1640   43.6380   23.9010 C.3     1  UNL1       -0.0530
     93 C           6.3810   44.1420   23.1240 C.3     1  UNL1       -0.0533
     94 C           7.4030   44.7970   24.0520 C.3     1  UNL1       -0.0559
     95 C           8.6130   45.3010   23.2820 C.3     1  UNL1       -0.0653
     96 O           2.9400   39.7500   22.8250 O.3     1  UNL1       -0.3909
     97 O           1.9470   37.7170   21.4870 O.3     1  UNL1       -0.3916
     98 O           0.5920   35.8130   20.2140 O.3     1  UNL1       -0.3916
     99 O          -0.8650   34.1660   18.7280 O.3     1  UNL1       -0.3916
    100 O           0.3570   32.4960   15.8420 O.3     1  UNL1       -0.3916
    101 O          -3.8680   32.7290   15.7480 O.3     1  UNL1       -0.3916
    102 O          -4.5580   30.6950   20.0410 O.3     1  UNL1       -0.3874
@<TRIPOS>BOND
     1    20    70    1
     2    39   100    1
     3    19    69    1
     4   101    40    1
     5   101    72    1
     6   100    70    1
     7    70    69    1
     8    70    71    1
     9    45    69    1
    10    69    68    1
    11    46    71    1
    12    71    72    1
    13    71    21    1
    14    72    22    1
    15    72    73    1
    16    17    67    1
    17    23    73    1
    18    18    68    1
    19    68    67    1
    20    68    99    1
    21    47    73    1
    22    73    74    1
    23    67    44    1
    24    67    66    1
    25     2    85    1
    26     4    83    1
    27    99    38    1
    28     5    81    1
    29    16    66    1
    30    15    65    1
    31     7    78    1
    32    27    87    1
    33     9    76    1
    34    66    65    1
    35    66    98    1
    36    49    86    1
    37    24    74    1
    38    85    86    1
    39    85    84    2
    40    74   102    1
    41    74    75    1
    42    10   102    1
    43    83    84    1
    44    83    82    2
    45    65    43    1
    46    65    64    1
    47    50    88    1
    48    81    82    1
    49    81    80    2
    50    14    64    1
    51    86    87    1
    52    86    26    1
    53    76    75    2
    54    76    77    1
    55    78    80    1
    56    78    77    2
    57    87    88    1
    58    87    91    1
    59    84     1    1
    60    98    37    1
    61    75    89    1
    62    82     3    1
    63    88    57    1
    64    88    28    1
    65    64    63    1
    66    64    97    1
    67    13    63    1
    68    80     6    1
    69    77     8    1
    70    91    59    1
    71    51    89    1
    72    12    62    1
    73    63    62    1
    74    63    42    1
    75    97    36    1
    76    89    58    1
    77    89    29    1
    78    62    96    1
    79    62    61    1
    80    59    60    2
    81    59    61    1
    82    30    90    1
    83    32    93    1
    84    52    90    1
    85    41    95    1
    86    54    93    1
    87    56    95    1
    88    96    35    1
    89    61    11    1
    90    61    79    1
    91    90    79    1
    92    90    92    1
    93    93    92    1
    94    93    94    1
    95    95    34    1
    96    95    94    1
    97    79    48    1
    98    79    25    1
    99    92    53    1
   100    92    31    1
   101    94    55    1
   102    94    33    1
