@<TRIPOS>MOLECULE
34.53638
 102 102 0 0 0
SMALL
GASTEIGER

@<TRIPOS>ATOM
      1 H          -2.4390   40.7230   22.5190 H       1  UNL1        0.0614
      2 H          -3.0270   43.7390   22.6070 H       1  UNL1        0.0573
      3 H          -3.5190   39.5050   24.3390 H       1  UNL1        0.0618
      4 H          -4.2270   42.5000   24.3510 H       1  UNL1        0.0617
      5 H          -5.2400   41.2960   26.2190 H       1  UNL1        0.0618
      6 H          -4.4650   38.3180   26.2630 H       1  UNL1        0.0618
      7 H          -6.1240   40.1410   28.1630 H       1  UNL1        0.0618
      8 H          -5.2370   37.2060   28.3010 H       1  UNL1        0.0618
      9 H          -6.8730   39.0880   30.1460 H       1  UNL1        0.0618
     10 H          -8.2830   36.6670   33.3800 H       1  UNL1        0.2102
     11 H           3.0420   41.2980   23.9810 H       1  UNL1        0.0439
     12 H           0.1610   41.1690   24.9970 H       1  UNL1        0.0602
     13 H           0.7670   43.5490   25.0950 H       1  UNL1        0.0315
     14 H           1.5100   42.4310   27.8430 H       1  UNL1        0.0595
     15 H          -0.6560   41.3710   27.1530 H       1  UNL1        0.0315
     16 H          -0.2590   42.2930   29.5420 H       1  UNL1        0.0595
     17 H          -2.1710   40.7820   28.9740 H       1  UNL1        0.0315
     18 H          -1.9360   41.8780   31.3100 H       1  UNL1        0.0595
     19 H          -3.5540   40.0440   30.8470 H       1  UNL1        0.0315
     20 H          -3.5500   41.2650   33.1490 H       1  UNL1        0.0595
     21 H          -6.2580   40.2040   32.1920 H       1  UNL1        0.0315
     22 H          -4.2870   38.4860   32.1280 H       1  UNL1        0.0595
     23 H          -6.4220   37.9720   34.2720 H       1  UNL1        0.0318
     24 H          -7.6020   38.3700   32.1670 H       1  UNL1        0.0641
     25 H           0.5940   39.7660   22.9560 H       1  UNL1        0.0274
     26 H          -1.9640   43.5980   20.3830 H       1  UNL1        0.0343
     27 H           0.4760   43.3870   20.7530 H       1  UNL1        0.0734
     28 H          -0.7640   44.7340   23.2270 H       1  UNL1        0.0265
     29 H          -5.2230   35.6790   29.7500 H       1  UNL1        0.0275
     30 H           3.5520   39.6120   22.1680 H       1  UNL1        0.0265
     31 H           1.0930   38.0530   21.2050 H       1  UNL1        0.0265
     32 H           4.0390   37.8650   20.3810 H       1  UNL1        0.0265
     33 H           1.5610   36.3260   19.4310 H       1  UNL1        0.0263
     34 H           3.1670   35.0500   18.0510 H       1  UNL1        0.0230
     35 H           2.7150   40.6060   26.1280 H       1  UNL1        0.2098
     36 H           1.7680   44.6660   27.3910 H       1  UNL1        0.2098
     37 H          -0.5520   44.4970   28.6800 H       1  UNL1        0.2098
     38 H          -2.6140   43.9540   30.3400 H       1  UNL1        0.2098
     39 H          -4.5080   43.1580   32.0780 H       1  UNL1        0.2098
     40 H          -3.5160   37.8860   34.1760 H       1  UNL1        0.2098
     41 H           4.5000   36.0830   18.5950 H       1  UNL1        0.0230
     42 H           2.3620   43.1690   25.7010 H       1  UNL1        0.0315
     43 H          -1.2970   42.9770   26.7470 H       1  UNL1        0.0315
     44 H          -3.1390   42.1990   28.5130 H       1  UNL1        0.0315
     45 H          -4.7620   41.2370   30.3330 H       1  UNL1        0.0315
     46 H          -5.8350   40.4910   33.8630 H       1  UNL1        0.0315
     47 H          -5.4130   36.7580   33.5750 H       1  UNL1        0.0318
     48 H           1.8740   39.0770   23.9470 H       1  UNL1        0.0274
     49 H          -1.4770   41.9290   20.6580 H       1  UNL1        0.0343
     50 H          -0.6880   45.4880   21.6140 H       1  UNL1        0.0265
     51 H          -6.4070   35.0480   30.8790 H       1  UNL1        0.0275
     52 H           2.2620   40.2660   21.1530 H       1  UNL1        0.0265
     53 H           2.3890   37.3920   22.2040 H       1  UNL1        0.0265
     54 H           2.7470   38.5360   19.3820 H       1  UNL1        0.0265
     55 H           2.8530   35.6540   20.4290 H       1  UNL1        0.0263
     56 H           3.2010   36.7610   17.5920 H       1  UNL1        0.0230
     57 H           0.7900   45.0950   22.5070 H       1  UNL1        0.0265
     58 H          -4.8780   35.7300   31.4710 H       1  UNL1        0.0275
     59 C           1.6180   42.3340   22.8030 C.2     1  UNL1        0.3130
     60 O           2.4540   43.0640   22.2890 O.2     1  UNL1       -0.2504
     61 C           1.9620   41.2380   23.7910 C.3     1  UNL1        0.0823
     62 C           1.2190   41.4230   25.1330 C.3     1  UNL1        0.0705
     63 C           1.3150   42.8360   25.7230 C.3     1  UNL1        0.0001
     64 C           0.8210   42.9610   27.1750 C.3     1  UNL1        0.0600
     65 C          -0.6070   42.4350   27.4050 C.3     1  UNL1       -0.0006
     66 C          -1.0530   42.6280   28.8640 C.3     1  UNL1        0.0599
     67 C          -2.3380   41.8470   29.1760 C.3     1  UNL1       -0.0006
     68 C          -2.7850   42.0390   30.6360 C.3     1  UNL1        0.0599
     69 C          -3.9140   41.0640   31.0080 C.3     1  UNL1       -0.0006
     70 C          -4.4000   41.2500   32.4580 C.3     1  UNL1        0.0599
     71 C          -5.4180   40.1840   32.8940 C.3     1  UNL1       -0.0006
     72 C          -4.8370   38.7720   33.0280 C.3     1  UNL1        0.0602
     73 C          -5.9050   37.7120   33.3370 C.3     1  UNL1        0.0032
     74 C          -6.9480   37.4930   32.2280 C.3     1  UNL1        0.0786
     75 C          -6.3310   37.1970   30.8700 C.2     1  UNL1       -0.0445
     76 C          -6.3610   38.1520   29.9180 C.2     1  UNL1       -0.0604
     77 C          -5.7220   38.1220   28.6220 C.2     1  UNL1       -0.0617
     78 C          -5.6580   39.2120   27.8410 C.2     1  UNL1       -0.0618
     79 C           1.6630   39.8470   23.1950 C.3     1  UNL1       -0.0377
     80 C          -4.9320   39.2430   26.5930 C.2     1  UNL1       -0.0618
     81 C          -4.7830   40.3680   25.8780 C.2     1  UNL1       -0.0618
     82 C          -3.9860   40.4290   24.6750 C.2     1  UNL1       -0.0618
     83 C          -3.7730   41.5720   24.0070 C.2     1  UNL1       -0.0621
     84 C          -2.9010   41.6480   22.8600 C.2     1  UNL1       -0.0656
     85 C          -2.5880   42.8060   22.2600 C.2     1  UNL1       -0.0805
     86 C          -1.5800   42.9080   21.1440 C.3     1  UNL1        0.0026
     87 C          -0.1900   43.3680   21.6250 C.3     1  UNL1        0.1037
     88 C          -0.2230   44.7500   22.2760 C.3     1  UNL1       -0.0274
     89 C          -5.6740   35.8470   30.7300 C.3     1  UNL1       -0.0411
     90 C           2.4820   39.5350   21.9390 C.3     1  UNL1       -0.0522
     91 O           0.2850   42.3810   22.5680 O.3     1  UNL1       -0.4611
     92 C           2.1660   38.1290   21.4230 C.3     1  UNL1       -0.0530
     93 C           2.9660   37.7970   20.1630 C.3     1  UNL1       -0.0533
     94 C           2.6330   36.3960   19.6520 C.3     1  UNL1       -0.0559
     95 C           3.4230   36.0550   18.3990 C.3     1  UNL1       -0.0653
     96 O           1.7480   40.4950   26.0900 O.3     1  UNL1       -0.3909
     97 O           0.8620   44.3450   27.5510 O.3     1  UNL1       -0.3916
     98 O          -1.2850   44.0160   29.1280 O.3     1  UNL1       -0.3916
     99 O          -3.2450   43.3790   30.8340 O.3     1  UNL1       -0.3916
    100 O          -5.0680   42.5140   32.5670 O.3     1  UNL1       -0.3916
    101 O          -3.8850   38.7830   34.0960 O.3     1  UNL1       -0.3916
    102 O          -7.7870   36.3980   32.5890 O.3     1  UNL1       -0.3874
@<TRIPOS>BOND
     1    56    95    1
     2    34    95    1
     3    95    41    1
     4    95    94    1
     5    54    93    1
     6    33    94    1
     7    94    93    1
     8    94    55    1
     9    93    32    1
    10    93    92    1
    11    26    86    1
    12    49    86    1
    13    27    87    1
    14    86    87    1
    15    86    85    1
    16    52    90    1
    17    31    92    1
    18    92    90    1
    19    92    53    1
    20    50    88    1
    21    87    88    1
    22    87    91    1
    23    90    30    1
    24    90    79    1
    25    85     2    1
    26    85    84    2
    27    88    57    1
    28    88    28    1
    29    60    59    2
    30     1    84    1
    31    91    59    1
    32    59    61    1
    33    84    83    1
    34    25    79    1
    35    79    61    1
    36    79    48    1
    37    61    11    1
    38    61    62    1
    39    83     4    1
    40    83    82    2
    41     3    82    1
    42    82    81    1
    43    12    62    1
    44    13    63    1
    45    62    63    1
    46    62    96    1
    47    42    63    1
    48    63    64    1
    49    81     5    1
    50    81    80    2
    51    96    35    1
    52     6    80    1
    53    80    78    1
    54    43    65    1
    55    15    65    1
    56    64    65    1
    57    64    97    1
    58    64    14    1
    59    36    97    1
    60    65    66    1
    61    78     7    1
    62    78    77    2
    63     8    77    1
    64    44    67    1
    65    77    76    1
    66    37    98    1
    67    66    98    1
    68    66    67    1
    69    66    16    1
    70    17    67    1
    71    67    68    1
    72    29    89    1
    73    76     9    1
    74    76    75    2
    75    45    69    1
    76    38    99    1
    77    68    99    1
    78    68    69    1
    79    68    18    1
    80    89    75    1
    81    89    51    1
    82    89    58    1
    83    19    69    1
    84    75    74    1
    85    69    70    1
    86    39   100    1
    87    22    72    1
    88    24    74    1
    89    21    71    1
    90    74   102    1
    91    74    73    1
    92    70   100    1
    93    70    71    1
    94    70    20    1
    95   102    10    1
    96    71    72    1
    97    71    46    1
    98    72    73    1
    99    72   101    1
   100    73    47    1
   101    73    23    1
   102   101    40    1
