@<TRIPOS>MOLECULE
43.71270
 102 102 0 0 0
SMALL
GASTEIGER

@<TRIPOS>ATOM
      1 H           1.9310   45.8020   20.7830 H       1  UNL1        0.0614
      2 H          -0.9430   44.9990   21.5390 H       1  UNL1        0.0573
      3 H           2.9890   47.2140   22.4790 H       1  UNL1        0.0618
      4 H           0.2580   46.1190   23.3840 H       1  UNL1        0.0617
      5 H           1.5720   47.0490   25.2340 H       1  UNL1        0.0618
      6 H           4.0270   48.6240   24.2470 H       1  UNL1        0.0618
      7 H           2.9360   47.8860   27.0500 H       1  UNL1        0.0618
      8 H           4.9220   50.0540   26.1470 H       1  UNL1        0.0618
      9 H           4.3670   48.6360   28.8020 H       1  UNL1        0.0618
     10 H           6.3070   51.3250   31.8280 H       1  UNL1        0.2102
     11 H           1.9740   42.3860   22.8450 H       1  UNL1        0.0439
     12 H           0.0550   43.3690   24.2630 H       1  UNL1        0.0602
     13 H           2.5080   43.4630   24.8890 H       1  UNL1        0.0315
     14 H           0.6970   44.5300   26.3120 H       1  UNL1        0.0595
     15 H           3.1040   44.7560   26.9740 H       1  UNL1        0.0315
     16 H           1.2360   45.7200   28.4450 H       1  UNL1        0.0595
     17 H           3.6660   46.1650   28.9350 H       1  UNL1        0.0315
     18 H           1.7920   47.0640   30.4520 H       1  UNL1        0.0595
     19 H           4.2020   47.7300   30.7260 H       1  UNL1        0.0315
     20 H           2.3000   48.5320   32.3580 H       1  UNL1        0.0595
     21 H           5.2900   48.6460   32.7890 H       1  UNL1        0.0315
     22 H           3.1180   50.7650   33.1660 H       1  UNL1        0.0595
     23 H           3.7070   51.7670   31.0690 H       1  UNL1        0.0318
     24 H           5.6750   49.4640   30.6420 H       1  UNL1        0.0641
     25 H           0.5590   39.7480   23.5590 H       1  UNL1        0.0274
     26 H           0.9570   44.3980   19.1650 H       1  UNL1        0.0343
     27 H          -1.3640   42.6730   20.1710 H       1  UNL1        0.0734
     28 H           0.9940   42.0410   18.3250 H       1  UNL1        0.0265
     29 H           5.0670   52.0160   27.2690 H       1  UNL1        0.0275
     30 H           1.2750   39.7140   21.2110 H       1  UNL1        0.0265
     31 H           4.0840   40.2420   22.3260 H       1  UNL1        0.0265
     32 H           3.0900   39.6280   19.4900 H       1  UNL1        0.0265
     33 H           5.9180   40.1630   20.5480 H       1  UNL1        0.0263
     34 H           6.5780   39.9900   18.1700 H       1  UNL1        0.0230
     35 H           0.1860   40.7740   25.4370 H       1  UNL1        0.2098
     36 H          -0.2680   42.4600   26.8270 H       1  UNL1        0.2098
     37 H           0.6430   43.4640   29.0720 H       1  UNL1        0.2098
     38 H           1.4510   44.8140   31.2570 H       1  UNL1        0.2098
     39 H           2.3700   46.3830   33.3480 H       1  UNL1        0.2098
     40 H           4.7470   52.1210   33.3970 H       1  UNL1        0.2098
     41 H           4.9150   39.5880   17.7080 H       1  UNL1        0.0230
     42 H           2.2760   41.9530   25.7970 H       1  UNL1        0.0315
     43 H           2.9710   43.2550   27.9160 H       1  UNL1        0.0315
     44 H           3.6980   44.7190   29.9650 H       1  UNL1        0.0315
     45 H           4.4280   46.3900   31.8540 H       1  UNL1        0.0315
     46 H           4.3530   48.9490   34.2130 H       1  UNL1        0.0315
     47 H           3.1570   50.1210   30.7550 H       1  UNL1        0.0318
     48 H           2.1800   40.1800   24.0970 H       1  UNL1        0.0274
     49 H          -0.7680   44.7090   18.9630 H       1  UNL1        0.0343
     50 H          -0.6860   42.3130   17.8020 H       1  UNL1        0.0265
     51 H           6.4800   52.1160   28.3240 H       1  UNL1        0.0275
     52 H           2.1920   38.6120   22.2180 H       1  UNL1        0.0265
     53 H           3.1900   41.3590   21.2940 H       1  UNL1        0.0265
     54 H           4.0230   38.5250   20.5040 H       1  UNL1        0.0265
     55 H           4.9820   41.2780   19.5500 H       1  UNL1        0.0263
     56 H           5.8550   38.4640   18.7090 H       1  UNL1        0.0230
     57 H          -0.2620   40.9180   18.8200 H       1  UNL1        0.0265
     58 H           4.9000   52.7310   28.8640 H       1  UNL1        0.0275
     59 C           0.0170   42.0210   22.1220 C.2     1  UNL1        0.3130
     60 O          -1.1860   41.9650   22.3330 O.2     1  UNL1       -0.2504
     61 C           1.0990   41.8100   23.1720 C.3     1  UNL1        0.0823
     62 C           0.6210   42.4590   24.4980 C.3     1  UNL1        0.0705
     63 C           1.7760   42.8600   25.4380 C.3     1  UNL1        0.0001
     64 C           1.2660   43.6580   26.6560 C.3     1  UNL1        0.0600
     65 C           2.4170   44.1330   27.5590 C.3     1  UNL1       -0.0006
     66 C           1.9060   44.9200   28.7810 C.3     1  UNL1        0.0599
     67 C           3.0600   45.5300   29.5910 C.3     1  UNL1       -0.0006
     68 C           2.5520   46.3510   30.7910 C.3     1  UNL1        0.0599
     69 C           3.6980   47.1150   31.4690 C.3     1  UNL1       -0.0006
     70 C           3.2110   47.9900   32.6350 C.3     1  UNL1        0.0599
     71 C           4.2940   48.9710   33.1150 C.3     1  UNL1       -0.0006
     72 C           4.0540   50.4310   32.6990 C.3     1  UNL1        0.0602
     73 C           3.9740   50.7080   31.1900 C.3     1  UNL1        0.0032
     74 C           5.2880   50.4650   30.4250 C.3     1  UNL1        0.0786
     75 C           5.0850   50.5940   28.9200 C.2     1  UNL1       -0.0445
     76 C           4.6020   49.5360   28.2400 C.2     1  UNL1       -0.0604
     77 C           4.3630   49.4130   26.8220 C.2     1  UNL1       -0.0617
     78 C           3.5080   48.4940   26.3510 C.2     1  UNL1       -0.0618
     79 C           1.4550   40.3200   23.2860 C.3     1  UNL1       -0.0377
     80 C           3.3050   48.2140   24.9500 C.2     1  UNL1       -0.0618
     81 C           2.3030   47.4310   24.5240 C.2     1  UNL1       -0.0618
     82 C           2.1600   47.0040   23.1520 C.2     1  UNL1       -0.0618
     83 C           1.0940   46.3160   22.7170 C.2     1  UNL1       -0.0621
     84 C           1.0310   45.7430   21.3940 C.2     1  UNL1       -0.0656
     85 C          -0.0370   45.0720   20.9390 C.2     1  UNL1       -0.0805
     86 C          -0.0220   44.2910   19.6480 C.3     1  UNL1        0.0026
     87 C          -0.3110   42.7960   19.8890 C.3     1  UNL1        0.1037
     88 C          -0.0560   41.9770   18.6310 C.3     1  UNL1       -0.0274
     89 C           5.4010   51.9320   28.3070 C.3     1  UNL1       -0.0411
     90 C           2.0230   39.6770   22.0120 C.3     1  UNL1       -0.0522
     91 O           0.5840   42.3100   20.9140 O.3     1  UNL1       -0.4611
     92 C           3.3340   40.2990   21.5290 C.3     1  UNL1       -0.0530
     93 C           3.8520   39.5840   20.2780 C.3     1  UNL1       -0.0533
     94 C           5.1470   40.2170   19.7710 C.3     1  UNL1       -0.0559
     95 C           5.6510   39.5220   18.5160 C.3     1  UNL1       -0.0653
     96 O          -0.2700   41.6110   25.2330 O.3     1  UNL1       -0.3909
     97 O           0.3850   42.8560   27.4480 O.3     1  UNL1       -0.3916
     98 O           1.1590   44.0690   29.6540 O.3     1  UNL1       -0.3916
     99 O           1.9430   45.5010   31.7650 O.3     1  UNL1       -0.3916
    100 O           2.8670   47.1400   33.7310 O.3     1  UNL1       -0.3916
    101 O           5.1090   51.2260   33.2540 O.3     1  UNL1       -0.3916
    102 O           6.2940   51.3780   30.8490 O.3     1  UNL1       -0.3874
@<TRIPOS>BOND
     1    41    95    1
     2    50    88    1
     3    34    95    1
     4    28    88    1
     5    95    56    1
     6    95    94    1
     7    88    57    1
     8    88    87    1
     9    49    86    1
    10    26    86    1
    11    32    93    1
    12    55    94    1
    13    86    87    1
    14    86    85    1
    15    94    93    1
    16    94    33    1
    17    87    27    1
    18    87    91    1
    19    93    54    1
    20    93    92    1
    21     1    84    1
    22    91    59    1
    23    85    84    2
    24    85     2    1
    25    30    90    1
    26    53    92    1
    27    84    83    1
    28    92    90    1
    29    92    31    1
    30    90    52    1
    31    90    79    1
    32    59    60    2
    33    59    61    1
    34     3    82    1
    35    83    82    2
    36    83     4    1
    37    11    61    1
    38    82    81    1
    39    61    79    1
    40    61    62    1
    41    79    25    1
    42    79    48    1
    43     6    80    1
    44    12    62    1
    45    62    96    1
    46    62    63    1
    47    81    80    2
    48    81     5    1
    49    13    63    1
    50    80    78    1
    51    96    35    1
    52    63    42    1
    53    63    64    1
    54     8    77    1
    55    14    64    1
    56    78    77    2
    57    78     7    1
    58    64    97    1
    59    64    65    1
    60    77    76    1
    61    36    97    1
    62    15    65    1
    63    29    89    1
    64    65    43    1
    65    65    66    1
    66    76     9    1
    67    76    75    2
    68    89    51    1
    69    89    58    1
    70    89    75    1
    71    16    66    1
    72    66    67    1
    73    66    98    1
    74    75    74    1
    75    17    67    1
    76    37    98    1
    77    67    44    1
    78    67    68    1
    79    74    24    1
    80    74   102    1
    81    74    73    1
    82    18    68    1
    83    19    69    1
    84    47    73    1
    85    68    69    1
    86    68    99    1
    87   102    10    1
    88    23    73    1
    89    73    72    1
    90    38    99    1
    91    69    45    1
    92    69    70    1
    93    20    70    1
    94    70    71    1
    95    70   100    1
    96    72    71    1
    97    72    22    1
    98    72   101    1
    99    21    71    1
   100    71    46    1
   101   101    40    1
   102    39   100    1
