@<TRIPOS>MOLECULE
39.85899
 102 102 0 0 0
SMALL
GASTEIGER

@<TRIPOS>ATOM
      1 H          -1.0900   44.6800   22.1320 H       1  UNL1        0.0614
      2 H           1.6360   45.2200   20.8230 H       1  UNL1        0.0573
      3 H          -1.6570   46.4210   23.7850 H       1  UNL1        0.0618
      4 H           1.1590   46.7810   22.6040 H       1  UNL1        0.0617
      5 H           0.6830   48.3900   24.3770 H       1  UNL1        0.0618
      6 H          -2.1800   48.1220   25.4690 H       1  UNL1        0.0618
      7 H           0.2070   49.9990   26.1570 H       1  UNL1        0.0618
      8 H          -2.6560   49.7280   27.2270 H       1  UNL1        0.0618
      9 H          -0.2360   51.5390   27.9280 H       1  UNL1        0.0618
     10 H          -1.7320   54.3900   30.7960 H       1  UNL1        0.2102
     11 H           2.9630   40.7520   23.8280 H       1  UNL1        0.0439
     12 H           1.5250   43.1490   25.0440 H       1  UNL1        0.0602
     13 H           4.0440   43.2660   24.6840 H       1  UNL1        0.0315
     14 H           3.3500   42.8910   27.6520 H       1  UNL1        0.0595
     15 H           1.9750   44.7260   26.6840 H       1  UNL1        0.0315
     16 H           3.1670   45.0940   28.9360 H       1  UNL1        0.0595
     17 H           1.4820   46.7390   28.1260 H       1  UNL1        0.0315
     18 H           2.8960   47.2840   30.2120 H       1  UNL1        0.0595
     19 H           0.9720   48.7190   29.5780 H       1  UNL1        0.0315
     20 H           2.5400   49.4830   31.4950 H       1  UNL1        0.0595
     21 H           1.3410   51.7420   29.8110 H       1  UNL1        0.0315
     22 H          -0.3950   50.0240   30.6920 H       1  UNL1        0.0595
     23 H          -0.4410   52.7800   32.0510 H       1  UNL1        0.0318
     24 H          -0.4260   53.0920   29.5960 H       1  UNL1        0.0641
     25 H           0.9430   39.7300   24.6550 H       1  UNL1        0.0274
     26 H           0.3070   43.7690   19.1580 H       1  UNL1        0.0343
     27 H           1.2090   41.5900   19.5830 H       1  UNL1        0.0734
     28 H           3.3340   43.6580   20.2850 H       1  UNL1        0.0265
     29 H          -3.7940   50.4920   28.8060 H       1  UNL1        0.0275
     30 H          -0.6260   41.8520   23.0880 H       1  UNL1        0.0265
     31 H          -1.5090   39.3750   24.6610 H       1  UNL1        0.0265
     32 H          -3.1440   41.4550   23.1140 H       1  UNL1        0.0265
     33 H          -3.9870   38.9620   24.6930 H       1  UNL1        0.0263
     34 H          -6.2670   39.5250   23.9270 H       1  UNL1        0.0230
     35 H           2.1540   40.7040   26.3660 H       1  UNL1        0.2098
     36 H           5.5590   42.7770   27.0780 H       1  UNL1        0.2098
     37 H           5.2440   45.2360   27.7410 H       1  UNL1        0.2098
     38 H           4.7900   47.5920   28.7810 H       1  UNL1        0.2098
     39 H           4.2300   49.9160   29.8730 H       1  UNL1        0.2098
     40 H          -0.6370   49.9980   32.9490 H       1  UNL1        0.2098
     41 H          -5.6730   41.0020   23.1480 H       1  UNL1        0.0230
     42 H           4.2160   41.7810   25.5840 H       1  UNL1        0.0315
     43 H           3.4170   45.4020   25.9010 H       1  UNL1        0.0315
     44 H           2.7340   47.5530   27.1660 H       1  UNL1        0.0315
     45 H           2.0110   49.6450   28.4790 H       1  UNL1        0.0315
     46 H           1.8980   51.9150   31.4580 H       1  UNL1        0.0315
     47 H          -1.7940   51.7120   31.9730 H       1  UNL1        0.0318
     48 H           0.8970   39.8410   22.9180 H       1  UNL1        0.0274
     49 H          -0.5040   43.0060   20.5250 H       1  UNL1        0.0343
     50 H           2.8420   43.1050   18.6840 H       1  UNL1        0.0265
     51 H          -4.0310   52.1030   29.4550 H       1  UNL1        0.0275
     52 H          -0.5980   41.7040   24.8450 H       1  UNL1        0.0265
     53 H          -1.5520   39.5350   22.9040 H       1  UNL1        0.0265
     54 H          -3.0970   41.3030   24.8730 H       1  UNL1        0.0265
     55 H          -4.0400   39.1180   22.9360 H       1  UNL1        0.0263
     56 H          -5.6190   40.8440   24.9160 H       1  UNL1        0.0230
     57 H           3.6260   41.9880   19.8230 H       1  UNL1        0.0265
     58 H          -3.3970   50.8040   30.4870 H       1  UNL1        0.0275
     59 C           2.1740   42.2970   22.6300 C.2     1  UNL1        0.3130
     60 O           2.7780   43.3600   22.6150 O.2     1  UNL1       -0.2504
     61 C           2.0770   41.4010   23.8660 C.3     1  UNL1        0.0823
     62 C           2.1560   42.2600   25.1570 C.3     1  UNL1        0.0705
     63 C           3.5960   42.6840   25.4970 C.3     1  UNL1        0.0001
     64 C           3.7410   43.4720   26.8100 C.3     1  UNL1        0.0600
     65 C           3.0580   44.8520   26.7800 C.3     1  UNL1       -0.0006
     66 C           3.3720   45.6860   28.0360 C.3     1  UNL1        0.0599
     67 C           2.5500   46.9860   28.0870 C.3     1  UNL1       -0.0006
     68 C           2.9320   47.8730   29.2880 C.3     1  UNL1        0.0599
     69 C           1.9920   49.0840   29.4220 C.3     1  UNL1       -0.0006
     70 C           2.4100   50.0380   30.5600 C.3     1  UNL1        0.0599
     71 C           1.4330   51.2050   30.7610 C.3     1  UNL1       -0.0006
     72 C           0.0580   50.8070   31.3060 C.3     1  UNL1        0.0602
     73 C          -0.8950   52.0080   31.4140 C.3     1  UNL1        0.0032
     74 C          -1.3010   52.6340   30.0710 C.3     1  UNL1        0.0786
     75 C          -1.9570   51.6400   29.1240 C.2     1  UNL1       -0.0445
     76 C          -1.2480   51.1600   28.0810 C.2     1  UNL1       -0.0604
     77 C          -1.6500   50.1280   27.1530 C.2     1  UNL1       -0.0617
     78 C          -0.8090   49.6170   26.2400 C.2     1  UNL1       -0.0618
     79 C           0.8580   40.4500   23.8310 C.3     1  UNL1       -0.0377
     80 C          -1.1740   48.5240   25.3670 C.2     1  UNL1       -0.0618
     81 C          -0.3240   47.9880   24.4800 C.2     1  UNL1       -0.0618
     82 C          -0.6710   46.8590   23.6460 C.2     1  UNL1       -0.0618
     83 C           0.1740   46.3400   22.7440 C.2     1  UNL1       -0.0621
     84 C          -0.1450   45.1820   21.9410 C.2     1  UNL1       -0.0656
     85 C           0.6950   44.7050   21.0090 C.2     1  UNL1       -0.0805
     86 C           0.4410   43.4630   20.2030 C.3     1  UNL1        0.0026
     87 C           1.5430   42.3850   20.2640 C.3     1  UNL1        0.1037
     88 C           2.9110   42.8130   19.7370 C.3     1  UNL1       -0.0274
     89 C          -3.3650   51.2350   29.4810 C.3     1  UNL1       -0.0411
     90 C          -0.5100   41.1380   23.9110 C.3     1  UNL1       -0.0522
     91 O           1.5940   41.7150   21.5470 O.3     1  UNL1       -0.4611
     92 C          -1.6310   40.0960   23.8430 C.3     1  UNL1       -0.0530
     93 C          -3.0140   40.7400   23.9360 C.3     1  UNL1       -0.0533
     94 C          -4.1150   39.6800   23.8750 C.3     1  UNL1       -0.0559
     95 C          -5.4990   40.3030   23.9720 C.3     1  UNL1       -0.0653
     96 O           1.6500   41.5330   26.2840 O.3     1  UNL1       -0.3909
     97 O           5.1440   43.6590   27.0560 O.3     1  UNL1       -0.3916
     98 O           4.7620   46.0340   28.0600 O.3     1  UNL1       -0.3916
     99 O           4.2720   48.3530   29.1360 O.3     1  UNL1       -0.3916
    100 O           3.6710   50.6400   30.2360 O.3     1  UNL1       -0.3916
    101 O           0.2390   50.2500   32.6100 O.3     1  UNL1       -0.3916
    102 O          -2.2180   53.6990   30.3140 O.3     1  UNL1       -0.3874
@<TRIPOS>BOND
     1    50    88    1
     2    26    86    1
     3    27    87    1
     4    88    57    1
     5    88    87    1
     6    88    28    1
     7    86    87    1
     8    86    49    1
     9    86    85    1
    10    87    91    1
    11     2    85    1
    12    85    84    2
    13    91    59    1
    14    84     1    1
    15    84    83    1
    16     4    83    1
    17    60    59    2
    18    59    61    1
    19    83    82    2
    20    53    92    1
    21    48    79    1
    22    55    94    1
    23    30    90    1
    24    32    93    1
    25    41    95    1
    26    82     3    1
    27    82    81    1
    28    11    61    1
    29    79    61    1
    30    79    90    1
    31    79    25    1
    32    92    90    1
    33    92    93    1
    34    92    31    1
    35    61    62    1
    36    94    93    1
    37    94    95    1
    38    94    33    1
    39    90    52    1
    40    34    95    1
    41    93    54    1
    42    95    56    1
    43     5    81    1
    44    81    80    2
    45    13    63    1
    46    12    62    1
    47    62    63    1
    48    62    96    1
    49    80     6    1
    50    80    78    1
    51    63    42    1
    52    63    64    1
    53    43    65    1
    54     7    78    1
    55    78    77    2
    56    96    35    1
    57    15    65    1
    58    65    64    1
    59    65    66    1
    60    64    97    1
    61    64    14    1
    62    97    36    1
    63    77     8    1
    64    77    76    1
    65    44    67    1
    66    37    98    1
    67     9    76    1
    68    66    98    1
    69    66    67    1
    70    66    16    1
    71    76    75    2
    72    67    17    1
    73    67    68    1
    74    45    69    1
    75    38    99    1
    76    29    89    1
    77    75    89    1
    78    75    74    1
    79    99    68    1
    80    68    69    1
    81    68    18    1
    82    69    19    1
    83    69    70    1
    84    51    89    1
    85    89    58    1
    86    24    74    1
    87    21    71    1
    88    39   100    1
    89    74   102    1
    90    74    73    1
    91   100    70    1
    92   102    10    1
    93    70    71    1
    94    70    20    1
    95    22    72    1
    96    71    72    1
    97    71    46    1
    98    72    73    1
    99    72   101    1
   100    73    47    1
   101    73    23    1
   102   101    40    1
