@<TRIPOS>MOLECULE
39.69215
 102 102 0 0 0
SMALL
GASTEIGER

@<TRIPOS>ATOM
      1 H           3.7630   43.9610   27.5550 H       1  UNL1        0.0614
      2 H           4.6040   41.5930   25.7830 H       1  UNL1        0.0573
      3 H           2.8240   43.1410   29.7260 H       1  UNL1        0.0618
      4 H           3.6670   40.8580   27.8480 H       1  UNL1        0.0617
      5 H           2.6540   40.0320   29.8680 H       1  UNL1        0.0618
      6 H           1.8400   42.2610   31.8240 H       1  UNL1        0.0618
      7 H           1.5840   39.1560   31.8580 H       1  UNL1        0.0618
      8 H           0.7590   41.3610   33.8250 H       1  UNL1        0.0618
      9 H           0.4280   38.2750   33.7460 H       1  UNL1        0.0618
     10 H          -0.9790   37.1150   37.6060 H       1  UNL1        0.2102
     11 H           3.4120   39.9400   23.7350 H       1  UNL1        0.0439
     12 H           0.4060   39.9710   23.1890 H       1  UNL1        0.0602
     13 H           1.1390   41.3620   25.2110 H       1  UNL1        0.0315
     14 H          -1.0450   40.0280   25.1110 H       1  UNL1        0.0595
     15 H          -0.6940   41.6320   26.8840 H       1  UNL1        0.0315
     16 H          -2.3180   40.9460   28.2920 H       1  UNL1        0.0595
     17 H          -0.7550   39.9270   29.8470 H       1  UNL1        0.0315
     18 H          -3.3160   39.3770   30.0250 H       1  UNL1        0.0595
     19 H          -1.8270   39.0300   31.9150 H       1  UNL1        0.0315
     20 H          -4.1580   37.7830   31.9060 H       1  UNL1        0.0595
     21 H          -1.8050   36.7270   33.5580 H       1  UNL1        0.0315
     22 H          -2.7220   39.1800   33.9420 H       1  UNL1        0.0595
     23 H          -2.9690   37.1430   36.2330 H       1  UNL1        0.0318
     24 H          -0.6400   37.1930   35.4260 H       1  UNL1        0.0641
     25 H           3.0860   38.6090   21.7900 H       1  UNL1        0.0274
     26 H           5.8500   43.3910   24.6770 H       1  UNL1        0.0343
     27 H           2.8820   43.9490   24.1500 H       1  UNL1        0.0734
     28 H           5.3220   44.1380   22.2930 H       1  UNL1        0.0265
     29 H          -0.1380   41.4810   35.7190 H       1  UNL1        0.0275
     30 H           1.4190   40.8930   20.6090 H       1  UNL1        0.0265
     31 H           2.3780   38.2490   19.3960 H       1  UNL1        0.0265
     32 H           0.6700   40.5120   18.2280 H       1  UNL1        0.0265
     33 H           1.6300   37.8660   17.0090 H       1  UNL1        0.0263
     34 H           0.5220   38.6820   14.9540 H       1  UNL1        0.0230
     35 H           0.8060   37.9800   24.5640 H       1  UNL1        0.2098
     36 H          -1.0650   38.1660   26.4070 H       1  UNL1        0.2098
     37 H          -3.0690   39.9050   26.5150 H       1  UNL1        0.2098
     38 H          -3.1330   37.8910   28.2420 H       1  UNL1        0.2098
     39 H          -3.3060   36.2380   30.3950 H       1  UNL1        0.2098
     40 H          -4.7170   39.2040   35.0350 H       1  UNL1        0.2098
     41 H          -0.0670   40.1190   15.8080 H       1  UNL1        0.0230
     42 H           1.9190   39.9000   25.8450 H       1  UNL1        0.0315
     43 H           0.3620   40.5660   27.7780 H       1  UNL1        0.0315
     44 H          -0.6440   38.4620   28.8550 H       1  UNL1        0.0315
     45 H          -1.1860   37.5390   31.2100 H       1  UNL1        0.0315
     46 H          -3.4560   36.2050   33.8280 H       1  UNL1        0.0315
     47 H          -2.9990   38.8520   36.4660 H       1  UNL1        0.0318
     48 H           3.7420   40.1600   21.2920 H       1  UNL1        0.0274
     49 H           4.8680   44.6540   25.4230 H       1  UNL1        0.0343
     50 H           4.4440   45.5240   22.9850 H       1  UNL1        0.0265
     51 H          -0.3570   40.5070   37.1550 H       1  UNL1        0.0275
     52 H           0.8140   39.2920   21.0430 H       1  UNL1        0.0265
     53 H           2.9770   39.8500   18.9520 H       1  UNL1        0.0265
     54 H           0.0710   38.9130   18.6730 H       1  UNL1        0.0265
     55 H           2.2280   39.4660   16.5640 H       1  UNL1        0.0263
     56 H          -0.6680   38.5100   16.2560 H       1  UNL1        0.0230
     57 H           3.6540   44.4330   21.8250 H       1  UNL1        0.0265
     58 H          -1.7390   40.8560   36.0970 H       1  UNL1        0.0275
     59 C           2.5540   41.7600   23.0600 C.2     1  UNL1        0.3130
     60 O           1.5590   42.4490   22.8780 O.2     1  UNL1       -0.2504
     61 C           2.5660   40.2460   23.1010 C.3     1  UNL1        0.0823
     62 C           1.2900   39.7150   23.7830 C.3     1  UNL1        0.0705
     63 C           1.1000   40.2690   25.2140 C.3     1  UNL1        0.0001
     64 C          -0.2390   39.8260   25.8260 C.3     1  UNL1        0.0600
     65 C          -0.5270   40.5760   27.1350 C.3     1  UNL1       -0.0006
     66 C          -1.7440   40.0800   27.9390 C.3     1  UNL1        0.0599
     67 C          -1.3160   39.2690   29.1740 C.3     1  UNL1       -0.0006
     68 C          -2.5080   38.6450   29.9160 C.3     1  UNL1        0.0599
     69 C          -2.0890   38.1560   31.3110 C.3     1  UNL1       -0.0006
     70 C          -3.1730   37.3130   32.0040 C.3     1  UNL1        0.0599
     71 C          -2.8490   37.0530   33.4830 C.3     1  UNL1       -0.0006
     72 C          -3.1230   38.2630   34.3840 C.3     1  UNL1        0.0602
     73 C          -2.5790   38.0780   35.8080 C.3     1  UNL1        0.0032
     74 C          -1.0460   38.0850   35.9170 C.3     1  UNL1        0.0786
     75 C          -0.4080   39.3420   35.3440 C.2     1  UNL1       -0.0445
     76 C           0.2990   39.2590   34.1990 C.2     1  UNL1       -0.0604
     77 C           0.8680   40.3520   33.4410 C.2     1  UNL1       -0.0617
     78 C           1.4740   40.1620   32.2590 C.2     1  UNL1       -0.0618
     79 C           2.8440   39.6750   21.6990 C.3     1  UNL1       -0.0377
     80 C           1.9660   41.2500   31.4420 C.2     1  UNL1       -0.0618
     81 C           2.5310   41.0470   30.2430 C.2     1  UNL1       -0.0618
     82 C           2.9720   42.1210   29.3790 C.2     1  UNL1       -0.0618
     83 C           3.5230   41.8850   28.1800 C.2     1  UNL1       -0.0621
     84 C           3.9230   42.9260   27.2620 C.2     1  UNL1       -0.0656
     85 C           4.4450   42.6350   26.0620 C.2     1  UNL1       -0.0805
     86 C           4.8340   43.6400   25.0070 C.3     1  UNL1        0.0026
     87 C           3.8650   43.5990   23.8100 C.3     1  UNL1        0.1037
     88 C           4.3510   44.4810   22.6690 C.3     1  UNL1       -0.0274
     89 C          -0.6720   40.6140   36.1120 C.3     1  UNL1       -0.0411
     90 C           1.6980   39.8370   20.6950 C.3     1  UNL1       -0.0522
     91 O           3.7990   42.2360   23.3430 O.3     1  UNL1       -0.4611
     92 C           2.0960   39.3060   19.3150 C.3     1  UNL1       -0.0530
     93 C           0.9520   39.4560   18.3100 C.3     1  UNL1       -0.0533
     94 C           1.3500   38.9240   16.9330 C.3     1  UNL1       -0.0559
     95 C           0.2160   39.0680   15.9310 C.3     1  UNL1       -0.0653
     96 O           1.3820   38.2870   23.8290 O.3     1  UNL1       -0.3909
     97 O          -0.1920   38.4170   26.0370 O.3     1  UNL1       -0.3916
     98 O          -2.6170   39.2910   27.1270 O.3     1  UNL1       -0.3916
     99 O          -3.0180   37.5480   29.1550 O.3     1  UNL1       -0.3916
    100 O          -3.2340   36.0390   31.3550 O.3     1  UNL1       -0.3916
    101 O          -4.5410   38.4400   34.4590 O.3     1  UNL1       -0.3916
    102 O          -0.6780   37.9840   37.2910 O.3     1  UNL1       -0.3874
@<TRIPOS>BOND
     1    34    95    1
     2    41    95    1
     3    95    56    1
     4    95    94    1
     5    55    94    1
     6    94    33    1
     7    94    93    1
     8    32    93    1
     9    93    54    1
    10    93    92    1
    11    53    92    1
    12    92    31    1
    13    92    90    1
    14    30    90    1
    15    90    52    1
    16    90    79    1
    17    48    79    1
    18    79    25    1
    19    79    61    1
    20    57    88    1
    21    28    88    1
    22    88    50    1
    23    88    87    1
    24    60    59    2
    25    59    61    1
    26    59    91    1
    27    61    11    1
    28    61    62    1
    29    12    62    1
    30    91    87    1
    31    62    96    1
    32    62    63    1
    33    87    27    1
    34    87    86    1
    35    96    35    1
    36    26    86    1
    37    86    49    1
    38    86    85    1
    39    14    64    1
    40    13    63    1
    41    63    64    1
    42    63    42    1
    43     2    85    1
    44    64    97    1
    45    64    65    1
    46    97    36    1
    47    85    84    2
    48    37    98    1
    49    15    65    1
    50    98    66    1
    51    65    43    1
    52    65    66    1
    53    84     1    1
    54    84    83    1
    55     4    83    1
    56    66    16    1
    57    66    67    1
    58    83    82    2
    59    38    99    1
    60    44    67    1
    61    99    68    1
    62    67    17    1
    63    67    68    1
    64    82     3    1
    65    82    81    1
    66     5    81    1
    67    68    18    1
    68    68    69    1
    69    81    80    2
    70    39   100    1
    71    45    69    1
    72    69    19    1
    73    69    70    1
    74   100    70    1
    75    80     6    1
    76    80    78    1
    77     7    78    1
    78    20    70    1
    79    70    71    1
    80    78    77    2
    81    77     8    1
    82    77    76    1
    83    71    21    1
    84    71    46    1
    85    71    72    1
    86     9    76    1
    87    22    72    1
    88    76    75    2
    89    72   101    1
    90    72    73    1
    91   101    40    1
    92    75    74    1
    93    75    89    1
    94    24    74    1
    95    29    89    1
    96    73    74    1
    97    73    23    1
    98    73    47    1
    99    74   102    1
   100    58    89    1
   101    89    51    1
   102   102    10    1
