@<TRIPOS>MOLECULE
34.71400
 102 102 0 0 0
SMALL
GASTEIGER

@<TRIPOS>ATOM
      1 H          -2.0630   41.2510   22.6140 H       1  UNL1        0.0614
      2 H          -1.8270   44.3150   22.6520 H       1  UNL1        0.0573
      3 H          -3.4760   40.4040   24.3940 H       1  UNL1        0.0618
      4 H          -3.3080   43.4770   24.3910 H       1  UNL1        0.0617
      5 H          -4.7100   42.6220   26.1970 H       1  UNL1        0.0618
      6 H          -4.7620   39.5460   26.3010 H       1  UNL1        0.0618
      7 H          -5.9680   41.7880   28.0930 H       1  UNL1        0.0618
      8 H          -5.8280   38.7320   28.3570 H       1  UNL1        0.0618
      9 H          -7.0150   41.0270   30.0730 H       1  UNL1        0.0618
     10 H          -8.9800   39.1560   33.3860 H       1  UNL1        0.2102
     11 H           3.0590   40.8090   23.7520 H       1  UNL1        0.0439
     12 H           0.1730   40.8810   24.7910 H       1  UNL1        0.0602
     13 H           0.8750   43.2040   24.5210 H       1  UNL1        0.0315
     14 H           1.6940   42.4830   27.3840 H       1  UNL1        0.0595
     15 H          -0.6250   41.5930   26.9090 H       1  UNL1        0.0315
     16 H           0.0010   42.6940   29.1530 H       1  UNL1        0.0595
     17 H          -2.1730   41.4820   28.8090 H       1  UNL1        0.0315
     18 H          -1.6460   42.6910   31.0240 H       1  UNL1        0.0595
     19 H          -3.6320   41.2040   30.7490 H       1  UNL1        0.0315
     20 H          -3.2980   42.5230   32.9580 H       1  UNL1        0.0595
     21 H          -6.2050   42.0770   32.1040 H       1  UNL1        0.0315
     22 H          -4.6620   39.9480   32.1390 H       1  UNL1        0.0595
     23 H          -6.8820   40.0570   34.2540 H       1  UNL1        0.0318
     24 H          -7.9170   40.5970   32.1070 H       1  UNL1        0.0641
     25 H           0.7250   38.9300   23.1470 H       1  UNL1        0.0274
     26 H           0.2080   43.8400   21.4340 H       1  UNL1        0.0343
     27 H          -1.0420   41.2190   20.4610 H       1  UNL1        0.0734
     28 H           1.6340   42.4750   19.6980 H       1  UNL1        0.0265
     29 H          -6.1800   37.3170   29.8770 H       1  UNL1        0.0275
     30 H           3.6830   38.8560   22.3360 H       1  UNL1        0.0265
     31 H           1.3630   36.9410   21.7480 H       1  UNL1        0.0265
     32 H           4.3150   36.8450   20.9280 H       1  UNL1        0.0265
     33 H           1.9890   34.9310   20.3500 H       1  UNL1        0.0263
     34 H           3.7080   33.5550   19.2240 H       1  UNL1        0.0230
     35 H           2.6880   40.3830   26.0320 H       1  UNL1        0.2098
     36 H           2.1430   44.5900   26.5240 H       1  UNL1        0.2098
     37 H          -0.0080   44.8240   28.0260 H       1  UNL1        0.2098
     38 H          -1.9530   44.7830   29.8740 H       1  UNL1        0.2098
     39 H          -3.8370   44.5240   31.7630 H       1  UNL1        0.2098
     40 H          -4.0690   39.2970   34.2280 H       1  UNL1        0.2098
     41 H           4.9380   34.7950   19.5250 H       1  UNL1        0.0230
     42 H           2.4830   42.8510   25.1050 H       1  UNL1        0.0315
     43 H          -1.0900   43.2130   26.3420 H       1  UNL1        0.0315
     44 H          -2.9040   43.0020   28.2500 H       1  UNL1        0.0315
     45 H          -4.5820   42.5880   30.1760 H       1  UNL1        0.0315
     46 H          -5.6850   42.3520   33.7490 H       1  UNL1        0.0315
     47 H          -6.1720   38.6070   33.6450 H       1  UNL1        0.0318
     48 H           2.0710   38.5730   24.2170 H       1  UNL1        0.0274
     49 H          -1.1180   43.6960   20.2960 H       1  UNL1        0.0343
     50 H           0.2280   42.2250   18.6560 H       1  UNL1        0.0265
     51 H          -7.4920   37.0290   31.0060 H       1  UNL1        0.0275
     52 H           2.3480   39.1860   21.2310 H       1  UNL1        0.0265
     53 H           2.7090   36.6040   22.8380 H       1  UNL1        0.0265
     54 H           2.9680   37.1840   19.8380 H       1  UNL1        0.0265
     55 H           3.3370   34.5920   21.4380 H       1  UNL1        0.0263
     56 H           3.5830   35.1350   18.4310 H       1  UNL1        0.0230
     57 H           1.1260   40.8350   19.3080 H       1  UNL1        0.0265
     58 H          -5.8560   37.3770   31.6030 H       1  UNL1        0.0275
     59 C           1.5620   41.5320   22.4430 C.2     1  UNL1        0.3130
     60 O           2.1690   42.5500   22.1340 O.2     1  UNL1       -0.2504
     61 C           1.9800   40.6560   23.6090 C.3     1  UNL1        0.0823
     62 C           1.2430   41.0930   24.8950 C.3     1  UNL1        0.0705
     63 C           1.4260   42.5810   25.2360 C.3     1  UNL1        0.0001
     64 C           1.0290   42.9780   26.6670 C.3     1  UNL1        0.0600
     65 C          -0.4320   42.6640   27.0270 C.3     1  UNL1       -0.0006
     66 C          -0.7620   43.0850   28.4710 C.3     1  UNL1        0.0599
     67 C          -2.1410   42.5730   28.9120 C.3     1  UNL1       -0.0006
     68 C          -2.4730   42.9720   30.3610 C.3     1  UNL1        0.0599
     69 C          -3.7630   42.2860   30.8410 C.3     1  UNL1       -0.0006
     70 C          -4.1480   42.6690   32.2820 C.3     1  UNL1        0.0599
     71 C          -5.3760   41.8990   32.7960 C.3     1  UNL1       -0.0006
     72 C          -5.1390   40.4010   33.0110 C.3     1  UNL1        0.0602
     73 C          -6.4280   39.6330   33.3480 C.3     1  UNL1        0.0032
     74 C          -7.4800   39.5990   32.2250 C.3     1  UNL1        0.0786
     75 C          -6.9300   39.1020   30.8970 C.2     1  UNL1       -0.0445
     76 C          -6.7270   39.9890   29.9010 C.2     1  UNL1       -0.0604
     77 C          -6.0850   39.7510   28.6280 C.2     1  UNL1       -0.0617
     78 C          -5.7340   40.7600   27.8160 C.2     1  UNL1       -0.0618
     79 C           1.7850   39.1490   23.3290 C.3     1  UNL1       -0.0377
     80 C          -4.9790   40.5690   26.5990 C.2     1  UNL1       -0.0618
     81 C          -4.5060   41.5990   25.8830 C.2     1  UNL1       -0.0618
     82 C          -3.6730   41.4250   24.7160 C.2     1  UNL1       -0.0618
     83 C          -3.1210   42.4570   24.0610 C.2     1  UNL1       -0.0621
     84 C          -2.2370   42.2750   22.9330 C.2     1  UNL1       -0.0656
     85 C          -1.6300   43.2980   22.3120 C.2     1  UNL1       -0.0805
     86 C          -0.6500   43.2150   21.1640 C.3     1  UNL1        0.0026
     87 C          -0.1650   41.8110   20.7520 C.3     1  UNL1        0.1037
     88 C           0.7570   41.8410   19.5340 C.3     1  UNL1       -0.0274
     89 C          -6.5950   37.6330   30.8370 C.3     1  UNL1       -0.0411
     90 C           2.6230   38.6500   22.1460 C.3     1  UNL1       -0.0522
     91 O           0.4340   41.0740   21.8470 O.3     1  UNL1       -0.4611
     92 C           2.4240   37.1480   21.9290 C.3     1  UNL1       -0.0530
     93 C           3.2530   36.6400   20.7480 C.3     1  UNL1       -0.0533
     94 C           3.0500   35.1410   20.5330 C.3     1  UNL1       -0.0559
     95 C           3.8690   34.6290   19.3590 C.3     1  UNL1       -0.0653
     96 O           1.7180   40.3120   25.9990 O.3     1  UNL1       -0.3909
     97 O           1.2370   44.3900   26.8230 O.3     1  UNL1       -0.3916
     98 O          -0.7540   44.5120   28.5880 O.3     1  UNL1       -0.3916
     99 O          -2.6430   44.3890   30.4580 O.3     1  UNL1       -0.3916
    100 O          -4.5000   44.0580   32.3210 O.3     1  UNL1       -0.3916
    101 O          -4.2210   40.2490   34.0980 O.3     1  UNL1       -0.3916
    102 O          -8.5500   38.7420   32.6180 O.3     1  UNL1       -0.3874
@<TRIPOS>BOND
     1    56    95    1
     2    50    88    1
     3    34    95    1
     4    57    88    1
     5    95    41    1
     6    95    94    1
     7    88    28    1
     8    88    87    1
     9    54    93    1
    10    49    86    1
    11    33    94    1
    12    27    87    1
    13    94    93    1
    14    94    55    1
    15    93    32    1
    16    93    92    1
    17    87    86    1
    18    87    91    1
    19    86    26    1
    20    86    85    1
    21    52    90    1
    22    31    92    1
    23    91    59    1
    24    92    90    1
    25    92    53    1
    26    60    59    2
    27    90    30    1
    28    90    79    1
    29    85     2    1
    30    85    84    2
    31    59    61    1
    32     1    84    1
    33    84    83    1
    34    25    79    1
    35    79    61    1
    36    79    48    1
    37    61    11    1
    38    61    62    1
    39    83     4    1
    40    83    82    2
    41     3    82    1
    42    13    63    1
    43    82    81    1
    44    12    62    1
    45    62    63    1
    46    62    96    1
    47    42    63    1
    48    63    64    1
    49    81     5    1
    50    81    80    2
    51    96    35    1
    52     6    80    1
    53    43    65    1
    54    36    97    1
    55    80    78    1
    56    64    97    1
    57    64    65    1
    58    64    14    1
    59    15    65    1
    60    65    66    1
    61    78     7    1
    62    78    77    2
    63    37    98    1
    64    44    67    1
    65     8    77    1
    66    66    98    1
    67    66    67    1
    68    66    16    1
    69    77    76    1
    70    17    67    1
    71    67    68    1
    72    38    99    1
    73    29    89    1
    74    76     9    1
    75    76    75    2
    76    45    69    1
    77    68    99    1
    78    68    69    1
    79    68    18    1
    80    19    69    1
    81    89    75    1
    82    89    51    1
    83    89    58    1
    84    69    70    1
    85    75    74    1
    86    39   100    1
    87    21    71    1
    88    24    74    1
    89    22    72    1
    90    74   102    1
    91    74    73    1
    92    70   100    1
    93    70    71    1
    94    70    20    1
    95   102    10    1
    96    71    72    1
    97    71    46    1
    98    72    73    1
    99    72   101    1
   100    73    47    1
   101    73    23    1
   102   101    40    1
