@<TRIPOS>MOLECULE
52.81477
 102 102 0 0 0
SMALL
GASTEIGER

@<TRIPOS>ATOM
      1 H           2.3680   47.1880   17.4150 H       1  UNL1        0.0614
      2 H           1.4140   49.9260   16.3960 H       1  UNL1        0.0573
      3 H           0.5720   45.6160   17.7310 H       1  UNL1        0.0618
      4 H          -0.4470   48.3730   16.8190 H       1  UNL1        0.0617
      5 H          -2.2770   46.8410   17.4630 H       1  UNL1        0.0618
      6 H          -1.2190   44.0630   18.2620 H       1  UNL1        0.0618
      7 H          -4.0480   45.3550   18.3040 H       1  UNL1        0.0618
      8 H          -3.0050   42.5200   18.8440 H       1  UNL1        0.0618
      9 H          -5.7340   43.9270   19.2420 H       1  UNL1        0.0618
     10 H          -8.6020   40.6080   19.4950 H       1  UNL1        0.2102
     11 H           1.4200   49.8360   20.6200 H       1  UNL1        0.0439
     12 H           2.0540   47.5150   22.5020 H       1  UNL1        0.0602
     13 H           0.9940   47.0430   20.1750 H       1  UNL1        0.0315
     14 H          -0.6250   45.4860   20.8990 H       1  UNL1        0.0595
     15 H          -1.9270   46.9320   22.4680 H       1  UNL1        0.0315
     16 H          -2.0540   44.3460   22.5410 H       1  UNL1        0.0595
     17 H          -3.6880   45.7410   23.7880 H       1  UNL1        0.0315
     18 H          -2.6000   43.7430   25.8310 H       1  UNL1        0.0595
     19 H          -3.7900   41.9550   25.0220 H       1  UNL1        0.0315
     20 H          -5.9400   42.9210   24.3850 H       1  UNL1        0.0595
     21 H          -5.0410   40.6900   23.4750 H       1  UNL1        0.0315
     22 H          -6.8110   40.1780   22.0210 H       1  UNL1        0.0595
     23 H          -7.1580   43.1820   21.5240 H       1  UNL1        0.0318
     24 H          -7.6490   42.4990   19.2270 H       1  UNL1        0.0641
     25 H           2.1740   50.8070   22.7210 H       1  UNL1        0.0274
     26 H           3.5070   50.7430   16.9370 H       1  UNL1        0.0343
     27 H           4.3700   48.0540   18.1270 H       1  UNL1        0.0734
     28 H           6.1590   49.4040   19.1840 H       1  UNL1        0.0265
     29 H          -5.2630   39.9640   18.4840 H       1  UNL1        0.0275
     30 H           4.6710   49.0490   22.4370 H       1  UNL1        0.0265
     31 H           3.9650   51.2290   24.4680 H       1  UNL1        0.0265
     32 H           6.4770   49.5060   24.1170 H       1  UNL1        0.0265
     33 H           5.7760   51.6520   26.1930 H       1  UNL1        0.0263
     34 H           8.0800   51.2780   27.0080 H       1  UNL1        0.0230
     35 H          -0.0710   49.4210   22.5230 H       1  UNL1        0.2098
     36 H           1.6270   45.1820   21.4560 H       1  UNL1        0.2098
     37 H           0.1230   44.3400   23.5490 H       1  UNL1        0.2098
     38 H          -4.1560   45.0790   26.5840 H       1  UNL1        0.2098
     39 H          -5.5110   44.6860   23.3190 H       1  UNL1        0.2098
     40 H          -8.4640   40.8160   23.3180 H       1  UNL1        0.2098
     41 H           8.3220   49.9870   25.8190 H       1  UNL1        0.0230
     42 H          -0.4070   47.9590   20.7260 H       1  UNL1        0.0315
     43 H          -0.6150   46.7850   23.6600 H       1  UNL1        0.0315
     44 H          -2.5450   46.0020   25.0680 H       1  UNL1        0.0315
     45 H          -2.9930   42.5690   23.5880 H       1  UNL1        0.0315
     46 H          -4.6770   41.5250   21.9700 H       1  UNL1        0.0315
     47 H          -8.5000   42.0840   21.4390 H       1  UNL1        0.0318
     48 H           3.3980   51.0070   21.4850 H       1  UNL1        0.0274
     49 H           4.1080   49.3800   15.9940 H       1  UNL1        0.0343
     50 H           5.6150   50.8440   18.3370 H       1  UNL1        0.0265
     51 H          -5.0910   39.9180   20.2480 H       1  UNL1        0.0275
     52 H           3.4630   48.9090   23.7170 H       1  UNL1        0.0265
     53 H           5.1490   51.4050   23.1710 H       1  UNL1        0.0265
     54 H           5.2950   49.3210   25.4150 H       1  UNL1        0.0265
     55 H           6.9450   51.8530   24.8860 H       1  UNL1        0.0263
     56 H           7.1460   49.7770   27.1320 H       1  UNL1        0.0230
     57 H           6.2850   49.4790   17.4120 H       1  UNL1        0.0265
     58 H          -3.8280   40.6290   19.2660 H       1  UNL1        0.0275
     59 C           3.1200   48.6400   20.2050 C.2     1  UNL1        0.3130
     60 O           3.4600   47.4650   20.1890 O.2     1  UNL1       -0.2504
     61 C           2.1520   49.2570   21.2020 C.3     1  UNL1        0.0823
     62 C           1.3600   48.1790   21.9770 C.3     1  UNL1        0.0705
     63 C           0.4350   47.3440   21.0660 C.3     1  UNL1        0.0001
     64 C          -0.1170   46.0490   21.6910 C.3     1  UNL1        0.0600
     65 C          -1.1210   46.2830   22.8280 C.3     1  UNL1       -0.0006
     66 C          -1.7080   44.9680   23.3730 C.3     1  UNL1        0.0599
     67 C          -2.8700   45.2550   24.3290 C.3     1  UNL1       -0.0006
     68 C          -3.3830   44.0460   25.1240 C.3     1  UNL1        0.0599
     69 C          -3.7760   42.7990   24.3190 C.3     1  UNL1       -0.0006
     70 C          -5.1520   42.8250   23.6310 C.3     1  UNL1        0.0599
     71 C          -5.3500   41.5250   22.8310 C.3     1  UNL1       -0.0006
     72 C          -6.7890   41.2130   22.3830 C.3     1  UNL1        0.0602
     73 C          -7.4080   42.1370   21.3250 C.3     1  UNL1        0.0032
     74 C          -7.0970   41.7890   19.8590 C.3     1  UNL1        0.0786
     75 C          -5.6380   41.8450   19.4470 C.2     1  UNL1       -0.0445
     76 C          -5.0960   43.0470   19.1590 C.2     1  UNL1       -0.0604
     77 C          -3.7300   43.3250   18.7760 C.2     1  UNL1       -0.0617
     78 C          -3.3290   44.5420   18.3810 C.2     1  UNL1       -0.0618
     79 C           2.9000   50.2550   22.1120 C.3     1  UNL1       -0.0377
     80 C          -1.9490   44.8500   18.0800 C.2     1  UNL1       -0.0618
     81 C          -1.5480   46.0540   17.6460 C.2     1  UNL1       -0.0618
     82 C          -0.1530   46.3850   17.4690 C.2     1  UNL1       -0.0618
     83 C           0.2690   47.5960   17.0780 C.2     1  UNL1       -0.0621
     84 C           1.6700   47.9500   17.0730 C.2     1  UNL1       -0.0656
     85 C           2.1170   49.1720   16.7470 C.2     1  UNL1       -0.0805
     86 C           3.5450   49.6460   16.8960 C.3     1  UNL1        0.0026
     87 C           4.2710   49.1440   18.1610 C.3     1  UNL1        0.1037
     88 C           5.6650   49.7520   18.2700 C.3     1  UNL1       -0.0274
     89 C          -4.9120   40.5260   19.3560 C.3     1  UNL1       -0.0411
     90 C           3.9450   49.6150   23.0320 C.3     1  UNL1       -0.0522
     91 O           3.5120   49.5870   19.3070 O.3     1  UNL1       -0.4611
     92 C           4.6830   50.6790   23.8490 C.3     1  UNL1       -0.0530
     93 C           5.7570   50.0520   24.7390 C.3     1  UNL1       -0.0533
     94 C           6.4890   51.1150   25.5570 C.3     1  UNL1       -0.0559
     95 C           7.5720   50.5000   26.4290 C.3     1  UNL1       -0.0653
     96 O           0.5590   48.8300   22.9710 O.3     1  UNL1       -0.3909
     97 O           0.9500   45.2190   22.1580 O.3     1  UNL1       -0.3916
     98 O          -0.7000   44.2460   24.0790 O.3     1  UNL1       -0.3916
     99 O          -4.5030   44.4700   25.9080 O.3     1  UNL1       -0.3916
    100 O          -5.2310   43.9440   22.7520 O.3     1  UNL1       -0.3916
    101 O          -7.6190   41.2350   23.5540 O.3     1  UNL1       -0.3916
    102 O          -7.6370   40.5050   19.5480 O.3     1  UNL1       -0.3874
@<TRIPOS>BOND
     1    49    86    1
     2     2    85    1
     3    85    86    1
     4    85    84    2
     5     4    83    1
     6    86    26    1
     7    86    87    1
     8    84    83    1
     9    84     1    1
    10    83    82    2
    11    57    88    1
    12     5    81    1
    13    82    81    1
    14    82     3    1
    15    81    80    2
    16    80     6    1
    17    80    78    1
    18    27    87    1
    19    87    88    1
    20    87    91    1
    21    88    50    1
    22    88    28    1
    23     7    78    1
    24    78    77    2
    25    29    89    1
    26    77     8    1
    27    77    76    1
    28    76     9    1
    29    76    75    2
    30    24    74    1
    31    58    89    1
    32    91    59    1
    33    89    75    1
    34    89    51    1
    35    75    74    1
    36    10   102    1
    37   102    74    1
    38    74    73    1
    39    13    63    1
    40    60    59    2
    41    59    61    1
    42    11    61    1
    43    42    63    1
    44    14    64    1
    45    63    64    1
    46    63    62    1
    47    61    62    1
    48    61    79    1
    49    73    47    1
    50    73    23    1
    51    73    72    1
    52    36    97    1
    53    48    79    1
    54    64    97    1
    55    64    65    1
    56    46    71    1
    57    62    12    1
    58    62    96    1
    59    22    72    1
    60    79    25    1
    61    79    90    1
    62    72    71    1
    63    72   101    1
    64    30    90    1
    65    15    65    1
    66    35    96    1
    67    16    66    1
    68   100    39    1
    69   100    70    1
    70    65    66    1
    71    65    43    1
    72    71    21    1
    73    71    70    1
    74    90    52    1
    75    90    92    1
    76    53    92    1
    77    40   101    1
    78    66    98    1
    79    66    67    1
    80    37    98    1
    81    45    69    1
    82    70    69    1
    83    70    20    1
    84    17    67    1
    85    92    31    1
    86    92    93    1
    87    32    93    1
    88    69    19    1
    89    69    68    1
    90    67    44    1
    91    67    68    1
    92    93    54    1
    93    93    94    1
    94    55    94    1
    95    68    18    1
    96    68    99    1
    97    94    33    1
    98    94    95    1
    99    41    95    1
   100    99    38    1
   101    95    34    1
   102    95    56    1
