@<TRIPOS>MOLECULE
45.35081
 102 102 0 0 0
SMALL
GASTEIGER

@<TRIPOS>ATOM
      1 H           3.0540   44.4340   21.7300 H       1  UNL1        0.0614
      2 H           2.1010   43.7980   18.8770 H       1  UNL1        0.0573
      3 H           5.3050   43.6240   22.1290 H       1  UNL1        0.0618
      4 H           4.4890   43.4210   19.1670 H       1  UNL1        0.0617
      5 H           6.7860   42.6610   19.5640 H       1  UNL1        0.0618
      6 H           7.3830   42.3980   22.5710 H       1  UNL1        0.0618
      7 H           8.7920   41.3800   19.9870 H       1  UNL1        0.0618
      8 H           9.2640   40.8910   22.9790 H       1  UNL1        0.0618
      9 H          10.4610   39.7470   20.3560 H       1  UNL1        0.0618
     10 H          13.9840   37.7170   21.3240 H       1  UNL1        0.2102
     11 H           0.2480   40.7220   23.8290 H       1  UNL1        0.0439
     12 H           3.0130   41.8560   23.1200 H       1  UNL1        0.0602
     13 H           1.9510   40.9730   21.0700 H       1  UNL1        0.0315
     14 H           4.4060   40.3450   21.6060 H       1  UNL1        0.0595
     15 H           3.1640   39.8330   19.4020 H       1  UNL1        0.0315
     16 H           4.8060   38.3730   18.4480 H       1  UNL1        0.0595
     17 H           4.9590   36.6060   20.1600 H       1  UNL1        0.0315
     18 H           6.9550   37.1290   18.5300 H       1  UNL1        0.0595
     19 H           6.7220   35.0330   19.8730 H       1  UNL1        0.0315
     20 H           8.9430   34.2220   19.8540 H       1  UNL1        0.0595
     21 H          10.1100   37.0260   19.5230 H       1  UNL1        0.0315
     22 H           9.5590   36.7540   21.9480 H       1  UNL1        0.0595
     23 H          12.4620   35.8980   21.4000 H       1  UNL1        0.0318
     24 H          12.0280   38.1390   20.4140 H       1  UNL1        0.0641
     25 H           1.7310   43.1320   24.9890 H       1  UNL1        0.0274
     26 H          -0.0340   43.6400   20.0080 H       1  UNL1        0.0343
     27 H           0.9410   45.6600   22.0860 H       1  UNL1        0.0734
     28 H          -1.7800   44.2960   21.8290 H       1  UNL1        0.0265
     29 H          10.7940   39.9610   24.1360 H       1  UNL1        0.0275
     30 H          -0.9240   41.8160   25.7810 H       1  UNL1        0.0265
     31 H           0.5710   44.2520   26.8920 H       1  UNL1        0.0265
     32 H          -2.0470   42.9250   27.7750 H       1  UNL1        0.0265
     33 H          -0.5550   45.3820   28.8460 H       1  UNL1        0.0263
     34 H          -2.3240   45.4160   30.5710 H       1  UNL1        0.0230
     35 H           2.1690   39.4280   24.3420 H       1  UNL1        0.2098
     36 H           3.9620   38.9590   23.2770 H       1  UNL1        0.2098
     37 H           5.3650   40.5200   19.0720 H       1  UNL1        0.2098
     38 H           7.4630   39.0000   19.9130 H       1  UNL1        0.2098
     39 H           8.0860   34.6030   17.8730 H       1  UNL1        0.2098
     40 H          10.1590   34.8870   23.0100 H       1  UNL1        0.2098
     41 H          -3.1470   44.0520   29.7960 H       1  UNL1        0.0230
     42 H           1.4820   39.4930   21.9290 H       1  UNL1        0.0315
     43 H           2.9070   38.1910   20.0150 H       1  UNL1        0.0315
     44 H           5.7800   37.7260   21.2700 H       1  UNL1        0.0315
     45 H           7.5540   35.7860   21.2290 H       1  UNL1        0.0315
     46 H          10.9400   35.5000   19.5150 H       1  UNL1        0.0315
     47 H          11.8880   36.4080   22.9410 H       1  UNL1        0.0318
     48 H           1.5450   41.5750   25.7780 H       1  UNL1        0.0274
     49 H           0.2920   45.3380   19.7370 H       1  UNL1        0.0343
     50 H          -1.4170   46.0050   21.5410 H       1  UNL1        0.0265
     51 H          12.2920   39.0650   24.0450 H       1  UNL1        0.0275
     52 H          -0.7900   43.3850   24.9840 H       1  UNL1        0.0265
     53 H           0.4420   42.6890   27.7000 H       1  UNL1        0.0265
     54 H          -1.9280   44.4830   26.9530 H       1  UNL1        0.0265
     55 H          -0.6600   43.8240   29.6680 H       1  UNL1        0.0263
     56 H          -3.0450   45.6170   28.9650 H       1  UNL1        0.0230
     57 H          -1.2590   45.3080   23.1690 H       1  UNL1        0.0265
     58 H          10.7460   38.1960   24.1110 H       1  UNL1        0.0275
     59 C           0.3190   42.4790   22.6440 C.2     1  UNL1        0.3130
     60 O          -0.5030   42.0890   21.8270 O.2     1  UNL1       -0.2504
     61 C           0.9360   41.5680   23.6920 C.3     1  UNL1        0.0823
     62 C           2.3000   41.0280   23.2100 C.3     1  UNL1        0.0705
     63 C           2.2470   40.2780   21.8630 C.3     1  UNL1        0.0001
     64 C           3.5930   39.6190   21.4960 C.3     1  UNL1        0.0600
     65 C           3.5750   39.0600   20.0650 C.3     1  UNL1       -0.0006
     66 C           4.9510   38.6570   19.4980 C.3     1  UNL1        0.0599
     67 C           5.6240   37.4760   20.2150 C.3     1  UNL1       -0.0006
     68 C           7.0070   37.1370   19.6240 C.3     1  UNL1        0.0599
     69 C           7.4910   35.7730   20.1350 C.3     1  UNL1       -0.0006
     70 C           8.8220   35.2710   19.5530 C.3     1  UNL1        0.0599
     71 C          10.0920   36.0280   19.9730 C.3     1  UNL1       -0.0006
     72 C          10.3120   36.1050   21.4890 C.3     1  UNL1        0.0602
     73 C          11.7260   36.5680   21.8660 C.3     1  UNL1        0.0032
     74 C          12.0680   38.0180   21.5030 C.3     1  UNL1        0.0786
     75 C          11.1940   39.0520   22.1910 C.2     1  UNL1       -0.0445
     76 C          10.4160   39.8570   21.4410 C.2     1  UNL1       -0.0604
     77 C           9.4320   40.8060   21.9100 C.2     1  UNL1       -0.0617
     78 C           8.6530   41.4930   21.0610 C.2     1  UNL1       -0.0618
     79 C           1.0680   42.2610   25.0670 C.3     1  UNL1       -0.0377
     80 C           7.5360   42.2990   21.4980 C.2     1  UNL1       -0.0618
     81 C           6.6430   42.8020   20.6340 C.2     1  UNL1       -0.0618
     82 C           5.4140   43.4250   21.0640 C.2     1  UNL1       -0.0618
     83 C           4.3940   43.6550   20.2250 C.2     1  UNL1       -0.0621
     84 C           3.1100   44.1240   20.6890 C.2     1  UNL1       -0.0656
     85 C           2.0150   44.1210   19.9140 C.2     1  UNL1       -0.0805
     86 C           0.6060   44.4690   20.3300 C.3     1  UNL1        0.0026
     87 C           0.3520   44.7730   21.8210 C.3     1  UNL1        0.1037
     88 C          -1.1090   45.1160   22.1020 C.3     1  UNL1       -0.0274
     89 C          11.2540   39.0730   23.6970 C.3     1  UNL1       -0.0411
     90 C          -0.2770   42.6940   25.6610 C.3     1  UNL1       -0.0522
     91 O           0.8180   43.7380   22.7220 O.3     1  UNL1       -0.4611
     92 C          -0.0750   43.3750   27.0180 C.3     1  UNL1       -0.0530
     93 C          -1.4050   43.8040   27.6370 C.3     1  UNL1       -0.0533
     94 C          -1.1880   44.4980   28.9820 C.3     1  UNL1       -0.0559
     95 C          -2.5050   44.9190   29.6130 C.3     1  UNL1       -0.0653
     96 O           2.8250   40.1400   24.2110 O.3     1  UNL1       -0.3909
     97 O           3.8240   38.5400   22.4010 O.3     1  UNL1       -0.3916
     98 O           5.8350   39.7790   19.4930 O.3     1  UNL1       -0.3916
     99 O           7.9340   38.1450   20.0170 O.3     1  UNL1       -0.3916
    100 O           8.7540   35.2640   18.1220 O.3     1  UNL1       -0.3916
    101 O          10.1320   34.7940   22.0410 O.3     1  UNL1       -0.3916
    102 O          13.4210   38.2760   21.8850 O.3     1  UNL1       -0.3874
@<TRIPOS>BOND
     1    39   100    1
     2   100    70    1
     3    16    66    1
     4    18    68    1
     5     2    85    1
     6    37    98    1
     7     4    83    1
     8    15    65    1
     9    98    66    1
    10    66    65    1
    11    66    67    1
    12    46    71    1
    13    21    71    1
    14    70    20    1
    15    70    71    1
    16    70    69    1
    17     5    81    1
    18    68    99    1
    19    68    69    1
    20    68    67    1
    21    49    86    1
    22    19    69    1
    23    38    99    1
    24    85    86    1
    25    85    84    2
    26    71    72    1
    27     7    78    1
    28    26    86    1
    29    43    65    1
    30    65    64    1
    31    69    45    1
    32    17    67    1
    33    67    44    1
    34    83    84    1
    35    83    82    2
    36    86    87    1
    37     9    76    1
    38    24    74    1
    39    81    82    1
    40    81    80    2
    41    84     1    1
    42    78    80    1
    43    78    77    2
    44    82     3    1
    45    13    63    1
    46    10   102    1
    47    23    73    1
    48    76    77    1
    49    76    75    2
    50    72    73    1
    51    72    22    1
    52    72   101    1
    53    64    14    1
    54    64    63    1
    55    64    97    1
    56    80     6    1
    57    74    73    1
    58    74   102    1
    59    74    75    1
    60    50    88    1
    61    87    27    1
    62    87    88    1
    63    87    91    1
    64    60    59    2
    65    28    88    1
    66    63    42    1
    67    63    62    1
    68    73    47    1
    69    77     8    1
    70   101    40    1
    71    88    57    1
    72    75    89    1
    73    97    36    1
    74    59    91    1
    75    59    61    1
    76    12    62    1
    77    62    61    1
    78    62    96    1
    79    61    11    1
    80    61    79    1
    81    89    51    1
    82    89    58    1
    83    89    29    1
    84    96    35    1
    85    52    90    1
    86    25    79    1
    87    79    90    1
    88    79    48    1
    89    90    30    1
    90    90    92    1
    91    31    92    1
    92    54    93    1
    93    92    93    1
    94    92    53    1
    95    93    32    1
    96    93    94    1
    97    33    94    1
    98    56    95    1
    99    94    95    1
   100    94    55    1
   101    95    41    1
   102    95    34    1
