@<TRIPOS>MOLECULE
40.40559
 102 102 0 0 0
SMALL
GASTEIGER

@<TRIPOS>ATOM
      1 H          -0.5590   48.0930   22.7910 H       1  UNL1        0.0614
      2 H           1.4450   45.7700   22.8190 H       1  UNL1        0.0573
      3 H           0.4110   50.1630   23.6590 H       1  UNL1        0.0618
      4 H           2.4740   47.8880   23.4800 H       1  UNL1        0.0617
      5 H           3.4310   49.9600   24.3940 H       1  UNL1        0.0618
      6 H           1.3030   52.1520   24.7670 H       1  UNL1        0.0618
      7 H           4.3100   51.9340   25.5450 H       1  UNL1        0.0618
      8 H           2.0910   53.9430   26.2270 H       1  UNL1        0.0618
      9 H           5.1000   53.7010   26.9600 H       1  UNL1        0.0618
     10 H           5.9830   56.8420   29.6060 H       1  UNL1        0.2102
     11 H           2.6910   41.4830   23.5500 H       1  UNL1        0.0439
     12 H           0.4680   42.8370   25.1820 H       1  UNL1        0.0602
     13 H           2.3230   44.4150   24.5030 H       1  UNL1        0.0315
     14 H           1.1780   44.5460   26.8140 H       1  UNL1        0.0595
     15 H           2.6140   46.3370   25.9140 H       1  UNL1        0.0315
     16 H           1.9140   46.3810   28.4330 H       1  UNL1        0.0595
     17 H           2.7750   48.3630   27.2680 H       1  UNL1        0.0315
     18 H           2.6930   48.4190   29.8770 H       1  UNL1        0.0595
     19 H           2.9390   50.4570   28.5520 H       1  UNL1        0.0315
     20 H           3.5630   50.6790   31.0680 H       1  UNL1        0.0595
     21 H           3.2240   52.6440   29.6690 H       1  UNL1        0.0315
     22 H           4.5930   53.0630   31.8500 H       1  UNL1        0.0595
     23 H           5.3510   55.3470   31.2250 H       1  UNL1        0.0318
     24 H           5.9380   54.8290   28.7560 H       1  UNL1        0.0641
     25 H          -0.3120   40.9020   23.5890 H       1  UNL1        0.0274
     26 H          -1.3880   46.0390   21.7000 H       1  UNL1        0.0343
     27 H          -1.3750   43.7470   21.1880 H       1  UNL1        0.0734
     28 H           1.3310   44.8630   20.3530 H       1  UNL1        0.0265
     29 H           1.8790   55.6320   27.5260 H       1  UNL1        0.0275
     30 H           2.0050   39.5780   22.0750 H       1  UNL1        0.0265
     31 H          -0.9980   38.9610   22.1470 H       1  UNL1        0.0265
     32 H           1.3000   37.6230   20.6210 H       1  UNL1        0.0265
     33 H          -1.7060   37.0150   20.6990 H       1  UNL1        0.0263
     34 H          -1.1230   35.1190   19.2230 H       1  UNL1        0.0230
     35 H           2.5790   41.0660   25.8860 H       1  UNL1        0.2098
     36 H           2.2440   42.6430   27.5720 H       1  UNL1        0.2098
     37 H           3.5360   44.7130   28.8710 H       1  UNL1        0.2098
     38 H           4.6020   47.0210   29.9290 H       1  UNL1        0.2098
     39 H           5.5620   49.4770   30.6420 H       1  UNL1        0.2098
     40 H           6.4540   52.0650   30.8780 H       1  UNL1        0.2098
     41 H           0.5690   35.6420   19.1710 H       1  UNL1        0.0230
     42 H           3.4910   43.3000   25.2350 H       1  UNL1        0.0315
     43 H           4.0680   45.4780   26.4570 H       1  UNL1        0.0315
     44 H           4.4410   47.7850   27.4450 H       1  UNL1        0.0315
     45 H           4.6500   50.1130   28.2610 H       1  UNL1        0.0315
     46 H           4.8180   52.3910   28.9060 H       1  UNL1        0.0315
     47 H           3.6810   55.0340   30.8350 H       1  UNL1        0.0318
     48 H           0.9370   39.8960   24.3090 H       1  UNL1        0.0274
     49 H          -1.2070   45.1410   23.2140 H       1  UNL1        0.0343
     50 H          -0.2020   44.9400   19.4920 H       1  UNL1        0.0265
     51 H           2.6650   56.6410   28.7140 H       1  UNL1        0.0275
     52 H           0.7450   40.5620   21.3260 H       1  UNL1        0.0265
     53 H           0.2640   37.9660   22.8770 H       1  UNL1        0.0265
     54 H           0.0430   38.6230   19.8910 H       1  UNL1        0.0265
     55 H          -0.4480   36.0140   21.4270 H       1  UNL1        0.0263
     56 H          -0.6960   36.6490   18.4390 H       1  UNL1        0.0230
     57 H           0.6100   43.3770   19.7310 H       1  UNL1        0.0265
     58 H           2.0170   55.0610   29.1960 H       1  UNL1        0.0275
     59 C           1.4220   42.8910   22.5910 C.2     1  UNL1        0.3130
     60 O           2.3380   43.5110   22.0700 O.2     1  UNL1       -0.2504
     61 C           1.6580   41.8380   23.6630 C.3     1  UNL1        0.0823
     62 C           1.5000   42.4870   25.0560 C.3     1  UNL1        0.0705
     63 C           2.4570   43.6680   25.2880 C.3     1  UNL1        0.0001
     64 C           2.2440   44.3490   26.6490 C.3     1  UNL1        0.0600
     65 C           3.0130   45.6750   26.6920 C.3     1  UNL1       -0.0006
     66 C           2.9430   46.3700   28.0580 C.3     1  UNL1        0.0599
     67 C           3.4540   47.8080   27.9270 C.3     1  UNL1       -0.0006
     68 C           3.5970   48.5400   29.2690 C.3     1  UNL1        0.0599
     69 C           3.8430   50.0280   29.0030 C.3     1  UNL1       -0.0006
     70 C           4.2540   50.8460   30.2360 C.3     1  UNL1        0.0599
     71 C           4.2590   52.3310   29.8450 C.3     1  UNL1       -0.0006
     72 C           4.9410   53.2760   30.8320 C.3     1  UNL1        0.0602
     73 C           4.7060   54.7710   30.5470 C.3     1  UNL1        0.0032
     74 C           4.9870   55.2520   29.1030 C.3     1  UNL1        0.0786
     75 C           3.8690   54.9550   28.1060 C.2     1  UNL1       -0.0445
     76 C           4.0930   54.1030   27.0830 C.2     1  UNL1       -0.0604
     77 C           3.0890   53.5170   26.2180 C.2     1  UNL1       -0.0617
     78 C           3.3240   52.3940   25.5210 C.2     1  UNL1       -0.0618
     79 C           0.7410   40.6080   23.4970 C.3     1  UNL1       -0.0377
     80 C           2.2810   51.6770   24.8180 C.2     1  UNL1       -0.0618
     81 C           2.4590   50.4440   24.3190 C.2     1  UNL1       -0.0618
     82 C           1.3790   49.6720   23.7430 C.2     1  UNL1       -0.0618
     83 C           1.5120   48.3860   23.3810 C.2     1  UNL1       -0.0621
     84 C           0.4000   47.5900   22.9110 C.2     1  UNL1       -0.0656
     85 C           0.4910   46.2710   22.6820 C.2     1  UNL1       -0.0805
     86 C          -0.6920   45.4270   22.2880 C.3     1  UNL1        0.0026
     87 C          -0.3960   44.1390   21.4950 C.3     1  UNL1        0.1037
     88 C           0.3830   44.3410   20.1980 C.3     1  UNL1       -0.0274
     89 C           2.5370   55.6000   28.3990 C.3     1  UNL1       -0.0411
     90 C           0.9550   39.8850   22.1620 C.3     1  UNL1       -0.0522
     91 O           0.1010   43.0980   22.3780 O.3     1  UNL1       -0.4611
     92 C           0.0510   38.6550   22.0510 C.3     1  UNL1       -0.0530
     93 C           0.2520   37.9330   20.7170 C.3     1  UNL1       -0.0533
     94 C          -0.6570   36.7100   20.6060 C.3     1  UNL1       -0.0559
     95 C          -0.4630   35.9900   19.2810 C.3     1  UNL1       -0.0653
     96 O           1.7400   41.5210   26.0900 O.3     1  UNL1       -0.3909
     97 O           2.7000   43.5030   27.7040 O.3     1  UNL1       -0.3916
     98 O           3.7470   45.6660   29.0050 O.3     1  UNL1       -0.3916
     99 O           4.6960   48.0000   30.0040 O.3     1  UNL1       -0.3916
    100 O           5.5630   50.4630   30.6600 O.3     1  UNL1       -0.3916
    101 O           6.3510   53.0430   30.8120 O.3     1  UNL1       -0.3916
    102 O           5.1580   56.6720   29.1200 O.3     1  UNL1       -0.3874
@<TRIPOS>BOND
     1    56    95    1
     2    41    95    1
     3    34    95    1
     4    95    94    1
     5    50    88    1
     6    57    88    1
     7    54    93    1
     8    88    28    1
     9    88    87    1
    10    94    33    1
    11    94    93    1
    12    94    55    1
    13    32    93    1
    14    93    92    1
    15    27    87    1
    16    52    90    1
    17    87    86    1
    18    87    91    1
    19    26    86    1
    20    92    31    1
    21    92    90    1
    22    92    53    1
    23    60    59    2
    24    30    90    1
    25    90    79    1
    26    86    85    1
    27    86    49    1
    28    91    59    1
    29    59    61    1
    30    85     2    1
    31    85    84    2
    32     1    84    1
    33    84    83    1
    34    83     4    1
    35    83    82    2
    36    79    25    1
    37    79    61    1
    38    79    48    1
    39    11    61    1
    40     3    82    1
    41    61    62    1
    42    82    81    1
    43    81     5    1
    44    81    80    2
    45    13    63    1
    46     6    80    1
    47    80    78    1
    48    62    12    1
    49    62    63    1
    50    62    96    1
    51    42    63    1
    52    63    64    1
    53    78     7    1
    54    78    77    2
    55    35    96    1
    56    15    65    1
    57    77     8    1
    58    77    76    1
    59    43    65    1
    60    64    65    1
    61    64    14    1
    62    64    97    1
    63    65    66    1
    64     9    76    1
    65    76    75    2
    66    17    67    1
    67    44    67    1
    68    29    89    1
    69    36    97    1
    70    67    66    1
    71    67    68    1
    72    66    16    1
    73    66    98    1
    74    75    89    1
    75    75    74    1
    76    45    69    1
    77    89    51    1
    78    89    58    1
    79    19    69    1
    80    24    74    1
    81    37    98    1
    82    46    71    1
    83    69    68    1
    84    69    70    1
    85    74   102    1
    86    74    73    1
    87   102    10    1
    88    68    18    1
    89    68    99    1
    90    21    71    1
    91    71    70    1
    92    71    72    1
    93    38    99    1
    94    70   100    1
    95    70    20    1
    96    73    72    1
    97    73    47    1
    98    73    23    1
    99    39   100    1
   100   101    72    1
   101   101    40    1
   102    72    22    1
