@<TRIPOS>MOLECULE
35.10613
 102 102 0 0 0
SMALL
GASTEIGER

@<TRIPOS>ATOM
      1 H          -1.2900   42.3040   20.9980 H       1  UNL1        0.0614
      2 H          -2.5340   44.5340   22.7070 H       1  UNL1        0.0573
      3 H          -2.4630   40.2090   21.2020 H       1  UNL1        0.0618
      4 H          -3.8560   42.4800   22.7440 H       1  UNL1        0.0617
      5 H          -5.0530   40.3390   22.9260 H       1  UNL1        0.0618
      6 H          -3.5030   38.0400   21.5890 H       1  UNL1        0.0618
      7 H          -6.1080   38.1740   23.2870 H       1  UNL1        0.0618
      8 H          -4.3870   35.8560   22.2380 H       1  UNL1        0.0618
      9 H          -7.0260   36.0610   23.8520 H       1  UNL1        0.0618
     10 H          -8.2480   32.0120   24.6220 H       1  UNL1        0.2102
     11 H           2.7200   42.0340   24.2300 H       1  UNL1        0.0439
     12 H           0.2390   40.7340   22.9710 H       1  UNL1        0.0602
     13 H          -0.4660   42.5700   24.4860 H       1  UNL1        0.0315
     14 H          -1.6660   40.2830   24.6340 H       1  UNL1        0.0595
     15 H          -2.6870   42.1920   25.7460 H       1  UNL1        0.0315
     16 H          -2.3530   40.1300   27.9970 H       1  UNL1        0.0595
     17 H          -3.1970   38.9350   25.9640 H       1  UNL1        0.0315
     18 H          -4.1930   38.5020   28.3200 H       1  UNL1        0.0595
     19 H          -4.6610   37.0140   26.3750 H       1  UNL1        0.0315
     20 H          -5.8860   36.6680   28.6440 H       1  UNL1        0.0595
     21 H          -7.5050   35.9100   26.1600 H       1  UNL1        0.0315
     22 H          -5.1030   34.9080   26.2270 H       1  UNL1        0.0595
     23 H          -7.3650   32.8900   26.7120 H       1  UNL1        0.0318
     24 H          -7.9790   34.1970   24.7340 H       1  UNL1        0.0641
     25 H           2.3220   40.8990   21.4170 H       1  UNL1        0.0274
     26 H          -0.2750   45.3840   22.6440 H       1  UNL1        0.0343
     27 H           0.1850   43.9360   19.9880 H       1  UNL1        0.0734
     28 H           2.0760   45.7430   21.5650 H       1  UNL1        0.0265
     29 H          -4.1710   33.8140   22.7100 H       1  UNL1        0.0275
     30 H           4.7900   42.0610   22.8200 H       1  UNL1        0.0265
     31 H           4.4140   40.8590   20.0250 H       1  UNL1        0.0265
     32 H           6.8950   42.0120   21.4070 H       1  UNL1        0.0265
     33 H           6.5110   40.8000   18.6160 H       1  UNL1        0.0263
     34 H           8.9490   41.1420   18.3860 H       1  UNL1        0.0230
     35 H           2.0390   39.9620   25.0340 H       1  UNL1        0.2098
     36 H           0.0760   39.2170   25.5930 H       1  UNL1        0.2098
     37 H          -3.2550   42.1430   28.5020 H       1  UNL1        0.2098
     38 H          -5.3270   40.5920   28.1620 H       1  UNL1        0.2098
     39 H          -7.1440   38.6370   28.1960 H       1  UNL1        0.2098
     40 H          -4.7470   33.4150   27.8890 H       1  UNL1        0.2098
     41 H           9.0170   41.9260   19.9740 H       1  UNL1        0.0230
     42 H           0.6410   41.9710   25.7340 H       1  UNL1        0.0315
     43 H          -1.4930   42.1830   27.0170 H       1  UNL1        0.0315
     44 H          -4.4530   40.1760   25.7690 H       1  UNL1        0.0315
     45 H          -6.0240   38.0520   25.9130 H       1  UNL1        0.0315
     46 H          -7.7430   35.2450   27.7570 H       1  UNL1        0.0315
     47 H          -5.8130   32.4950   26.0730 H       1  UNL1        0.0318
     48 H           3.2170   40.1230   22.7160 H       1  UNL1        0.0274
     49 H          -1.0050   45.7840   21.1040 H       1  UNL1        0.0343
     50 H           1.3110   46.1000   20.0100 H       1  UNL1        0.0265
     51 H          -5.3090   32.4780   22.7220 H       1  UNL1        0.0275
     52 H           3.9310   42.8330   21.4860 H       1  UNL1        0.0265
     53 H           5.2870   40.0910   21.3530 H       1  UNL1        0.0265
     54 H           6.0230   42.7790   20.0780 H       1  UNL1        0.0265
     55 H           7.3830   40.0320   19.9450 H       1  UNL1        0.0263
     56 H           8.1410   42.6980   18.6370 H       1  UNL1        0.0230
     57 H           2.5060   44.7910   20.1500 H       1  UNL1        0.0265
     58 H          -4.3980   32.8950   24.1880 H       1  UNL1        0.0275
     59 C           1.5950   43.1990   22.8650 C.2     1  UNL1        0.3130
     60 O           1.6550   44.2150   23.5440 O.2     1  UNL1       -0.2504
     61 C           2.0670   41.8460   23.3660 C.3     1  UNL1        0.0823
     62 C           0.8690   40.9890   23.8300 C.3     1  UNL1        0.0705
     63 C          -0.0060   41.6670   24.9010 C.3     1  UNL1        0.0001
     64 C          -1.1070   40.7420   25.4570 C.3     1  UNL1        0.0600
     65 C          -2.0710   41.5200   26.3580 C.3     1  UNL1       -0.0006
     66 C          -2.9670   40.6590   27.2590 C.3     1  UNL1        0.0599
     67 C          -3.8370   39.6410   26.5030 C.3     1  UNL1       -0.0006
     68 C          -4.7660   38.8690   27.4600 C.3     1  UNL1        0.0599
     69 C          -5.4410   37.6760   26.7630 C.3     1  UNL1       -0.0006
     70 C          -6.3920   36.9080   27.7030 C.3     1  UNL1        0.0599
     71 C          -6.9730   35.6320   27.0750 C.3     1  UNL1       -0.0006
     72 C          -5.9460   34.5270   26.8090 C.3     1  UNL1        0.0602
     73 C          -6.5540   33.3060   26.0990 C.3     1  UNL1        0.0032
     74 C          -7.0810   33.5700   24.6780 C.3     1  UNL1        0.0786
     75 C          -6.0480   34.2090   23.7630 C.2     1  UNL1       -0.0445
     76 C          -6.1630   35.5190   23.4650 C.2     1  UNL1       -0.0604
     77 C          -5.2160   36.3390   22.7450 C.2     1  UNL1       -0.0617
     78 C          -5.2950   37.6790   22.7570 C.2     1  UNL1       -0.0618
     79 C           2.9190   41.1000   22.3160 C.3     1  UNL1       -0.0377
     80 C          -4.2920   38.5270   22.1580 C.2     1  UNL1       -0.0618
     81 C          -4.2760   39.8560   22.3360 C.2     1  UNL1       -0.0618
     82 C          -3.2180   40.6930   21.8190 C.2     1  UNL1       -0.0618
     83 C          -3.1140   41.9970   22.1120 C.2     1  UNL1       -0.0621
     84 C          -2.0000   42.7960   21.6570 C.2     1  UNL1       -0.0656
     85 C          -1.8050   44.0640   22.0470 C.2     1  UNL1       -0.0805
     86 C          -0.6270   44.9460   21.7040 C.3     1  UNL1        0.0026
     87 C           0.5560   44.2950   20.9560 C.3     1  UNL1        0.1037
     88 C           1.6730   45.2920   20.6540 C.3     1  UNL1       -0.0274
     89 C          -4.9210   33.3090   23.3210 C.3     1  UNL1       -0.0411
     90 C           4.1900   41.8630   21.9240 C.3     1  UNL1       -0.0522
     91 O           1.0820   43.1150   21.6120 O.3     1  UNL1       -0.4611
     92 C           5.0190   41.0610   20.9180 C.3     1  UNL1       -0.0530
     93 C           6.2900   41.8090   20.5150 C.3     1  UNL1       -0.0533
     94 C           7.1110   41.0020   19.5100 C.3     1  UNL1       -0.0559
     95 C           8.3780   41.7380   19.1050 C.3     1  UNL1       -0.0653
     96 O           1.3600   39.7470   24.3650 O.3     1  UNL1       -0.3909
     97 O          -0.5080   39.6960   26.2190 O.3     1  UNL1       -0.3916
     98 O          -3.8310   41.5400   27.9960 O.3     1  UNL1       -0.3916
     99 O          -5.7830   39.7430   27.9600 O.3     1  UNL1       -0.3916
    100 O          -7.5140   37.7440   28.0170 O.3     1  UNL1       -0.3916
    101 O          -5.4140   34.1010   28.0660 O.3     1  UNL1       -0.3916
    102 O          -7.4950   32.3350   24.0980 O.3     1  UNL1       -0.3874
@<TRIPOS>BOND
     1    34    95    1
     2    33    94    1
     3    56    95    1
     4    95    94    1
     5    95    41    1
     6    94    55    1
     7    94    93    1
     8    27    87    1
     9    50    88    1
    10    31    92    1
    11    54    93    1
    12    57    88    1
    13    93    92    1
    14    93    32    1
    15    88    87    1
    16    88    28    1
    17    92    53    1
    18    92    90    1
    19    87    91    1
    20    87    86    1
    21     1    84    1
    22    49    86    1
    23     3    82    1
    24    25    79    1
    25    52    90    1
    26     6    80    1
    27    91    59    1
    28    84    85    2
    29    84    83    1
    30    86    85    1
    31    86    26    1
    32    82    83    2
    33    82    81    1
    34    90    79    1
    35    90    30    1
    36    85     2    1
    37    83     4    1
    38    80    81    2
    39    80    78    1
    40     8    77    1
    41    79    48    1
    42    79    61    1
    43    81     5    1
    44    29    89    1
    45    51    89    1
    46    77    78    2
    47    77    76    1
    48    78     7    1
    49    59    61    1
    50    59    60    2
    51    12    62    1
    52    89    75    1
    53    89    58    1
    54    61    62    1
    55    61    11    1
    56    76    75    2
    57    76     9    1
    58    75    74    1
    59    62    96    1
    60    62    63    1
    61   102    10    1
    62   102    74    1
    63    96    35    1
    64    13    63    1
    65    14    64    1
    66    74    24    1
    67    74    73    1
    68    63    64    1
    69    63    42    1
    70    64    97    1
    71    64    65    1
    72    36    97    1
    73    15    65    1
    74    44    67    1
    75    45    69    1
    76    17    67    1
    77    47    73    1
    78    73    23    1
    79    73    72    1
    80    21    71    1
    81    22    72    1
    82    65    43    1
    83    65    66    1
    84    19    69    1
    85    67    66    1
    86    67    68    1
    87    69    68    1
    88    69    70    1
    89    72    71    1
    90    72   101    1
    91    71    70    1
    92    71    46    1
    93    66    98    1
    94    66    16    1
    95    68    99    1
    96    68    18    1
    97    70   100    1
    98    70    20    1
    99    40   101    1
   100    99    38    1
   101    98    37    1
   102   100    39    1
