@<TRIPOS>MOLECULE
39.31512
 102 102 0 0 0
SMALL
GASTEIGER

@<TRIPOS>ATOM
      1 H           2.5130   40.4900   18.8060 H       1  UNL1        0.0614
      2 H          -0.3000   40.9100   19.9680 H       1  UNL1        0.0573
      3 H           2.9210   38.1330   18.2310 H       1  UNL1        0.0618
      4 H           0.2320   38.5530   19.6660 H       1  UNL1        0.0617
      5 H           0.7530   36.1850   19.3270 H       1  UNL1        0.0618
      6 H           3.3460   35.7710   17.7240 H       1  UNL1        0.0618
      7 H           1.2760   33.8200   18.9890 H       1  UNL1        0.0618
      8 H           3.8250   33.4160   17.3290 H       1  UNL1        0.0618
      9 H           1.8230   31.5070   18.7340 H       1  UNL1        0.0618
     10 H           2.7320   27.5730   17.3600 H       1  UNL1        0.2102
     11 H           1.5280   40.5200   24.4600 H       1  UNL1        0.0439
     12 H           3.7110   41.8380   22.7530 H       1  UNL1        0.0602
     13 H           4.0610   39.8420   21.7370 H       1  UNL1        0.0315
     14 H           4.7240   38.3660   23.4620 H       1  UNL1        0.0595
     15 H           3.7300   37.2340   21.4850 H       1  UNL1        0.0315
     16 H           4.5110   35.8190   23.4870 H       1  UNL1        0.0595
     17 H           3.8160   34.7670   21.3380 H       1  UNL1        0.0315
     18 H           4.3120   33.2460   23.3490 H       1  UNL1        0.0595
     19 H           3.9150   32.3370   21.0740 H       1  UNL1        0.0315
     20 H           4.1120   30.6600   23.0380 H       1  UNL1        0.0595
     21 H           2.2100   29.9010   20.7600 H       1  UNL1        0.0315
     22 H           4.7090   30.5770   20.1590 H       1  UNL1        0.0595
     23 H           3.7850   27.7140   19.5500 H       1  UNL1        0.0318
     24 H           2.1170   29.2610   18.6300 H       1  UNL1        0.0641
     25 H           2.4020   43.4510   24.5230 H       1  UNL1        0.0274
     26 H           0.5460   43.1510   18.8510 H       1  UNL1        0.0343
     27 H           1.1430   44.3780   20.8820 H       1  UNL1        0.0734
     28 H          -1.3320   42.6450   21.2370 H       1  UNL1        0.0265
     29 H           4.9080   31.8090   16.5230 H       1  UNL1        0.0275
     30 H           0.2040   41.9290   26.0250 H       1  UNL1        0.0265
     31 H           1.1320   44.8420   26.2410 H       1  UNL1        0.0265
     32 H          -1.0790   43.3010   27.7040 H       1  UNL1        0.0265
     33 H          -0.1640   46.2190   27.9350 H       1  UNL1        0.0263
     34 H          -1.8570   46.3590   29.7330 H       1  UNL1        0.0230
     35 H           4.5950   41.7440   24.7120 H       1  UNL1        0.2098
     36 H           3.4120   39.1120   25.0670 H       1  UNL1        0.2098
     37 H           2.6010   36.6550   24.7170 H       1  UNL1        0.2098
     38 H           2.2760   34.0300   24.3670 H       1  UNL1        0.2098
     39 H           1.9900   31.4300   23.8250 H       1  UNL1        0.2098
     40 H           6.1910   28.9470   20.6940 H       1  UNL1        0.2098
     41 H          -2.3660   44.6900   29.4220 H       1  UNL1        0.0230
     42 H           2.3540   39.6490   22.0350 H       1  UNL1        0.0315
     43 H           2.1300   37.2920   22.2540 H       1  UNL1        0.0315
     44 H           2.1230   34.7950   21.8710 H       1  UNL1        0.0315
     45 H           2.1680   32.3370   21.3650 H       1  UNL1        0.0315
     46 H           2.9310   28.7410   21.8530 H       1  UNL1        0.0315
     47 H           5.0860   28.5110   18.7440 H       1  UNL1        0.0318
     48 H           2.6780   42.2680   25.7990 H       1  UNL1        0.0274
     49 H           2.1370   42.7440   19.4940 H       1  UNL1        0.0343
     50 H          -1.1940   44.2310   20.4880 H       1  UNL1        0.0265
     51 H           4.6440   30.1560   16.0110 H       1  UNL1        0.0275
     52 H          -0.0700   43.1800   24.8100 H       1  UNL1        0.0265
     53 H           1.3990   43.5960   27.4630 H       1  UNL1        0.0265
     54 H          -1.3460   44.5490   26.4850 H       1  UNL1        0.0265
     55 H           0.1060   44.9700   29.1530 H       1  UNL1        0.0263
     56 H          -2.6380   45.9450   28.1970 H       1  UNL1        0.0230
     57 H          -0.9200   44.0400   22.2330 H       1  UNL1        0.0265
     58 H           5.6030   30.4960   17.4670 H       1  UNL1        0.0275
     59 C           1.0090   41.7530   22.8110 C.2     1  UNL1        0.3130
     60 O          -0.0290   41.1450   22.5890 O.2     1  UNL1       -0.2504
     61 C           1.9490   41.3960   23.9510 C.3     1  UNL1        0.0823
     62 C           3.3410   41.0250   23.3890 C.3     1  UNL1        0.0705
     63 C           3.3210   39.7360   22.5410 C.3     1  UNL1        0.0001
     64 C           3.6430   38.4280   23.2820 C.3     1  UNL1        0.0600
     65 C           3.2080   37.2130   22.4490 C.3     1  UNL1       -0.0006
     66 C           3.4680   35.8750   23.1580 C.3     1  UNL1        0.0599
     67 C           3.1620   34.7020   22.2160 C.3     1  UNL1       -0.0006
     68 C           3.3220   33.3270   22.8850 C.3     1  UNL1        0.0599
     69 C           3.1480   32.2100   21.8440 C.3     1  UNL1       -0.0006
     70 C           3.2040   30.7920   22.4400 C.3     1  UNL1        0.0599
     71 C           3.1080   29.7050   21.3570 C.3     1  UNL1       -0.0006
     72 C           4.3530   29.5920   20.4710 C.3     1  UNL1        0.0602
     73 C           4.1230   28.7100   19.2340 C.3     1  UNL1        0.0032
     74 C           3.1290   29.2810   18.2090 C.3     1  UNL1        0.0786
     75 C           3.4780   30.6870   17.7410 C.2     1  UNL1       -0.0445
     76 C           2.7060   31.7230   18.1310 C.2     1  UNL1       -0.0604
     77 C           2.9470   33.1310   17.8990 C.2     1  UNL1       -0.0617
     78 C           2.1560   34.0890   18.4080 C.2     1  UNL1       -0.0618
     79 C           1.9980   42.5410   24.9840 C.3     1  UNL1       -0.0377
     80 C           2.4420   35.5000   18.2640 C.2     1  UNL1       -0.0618
     81 C           1.6600   36.4560   18.7890 C.2     1  UNL1       -0.0618
     82 C           1.9790   37.8640   18.7040 C.2     1  UNL1       -0.0618
     83 C           1.1790   38.8210   19.1980 C.2     1  UNL1       -0.0621
     84 C           1.5250   40.2230   19.1760 C.2     1  UNL1       -0.0656
     85 C           0.6940   41.1810   19.6160 C.2     1  UNL1       -0.0805
     86 C           1.0590   42.6390   19.6740 C.3     1  UNL1        0.0026
     87 C           0.7280   43.3670   20.9930 C.3     1  UNL1        0.1037
     88 C          -0.7620   43.5780   21.2530 C.3     1  UNL1       -0.0274
     89 C           4.7210   30.7990   16.8940 C.3     1  UNL1       -0.0411
     90 C           0.6220   42.8450   25.5920 C.3     1  UNL1       -0.0522
     91 O           1.4670   42.8300   22.1190 O.3     1  UNL1       -0.4611
     92 C           0.7140   43.9240   26.6730 C.3     1  UNL1       -0.0530
     93 C          -0.6610   44.2200   27.2760 C.3     1  UNL1       -0.0533
     94 C          -0.5750   45.2950   28.3590 C.3     1  UNL1       -0.0559
     95 C          -1.9400   45.5870   28.9610 C.3     1  UNL1       -0.0653
     96 O           4.2880   40.8560   24.4500 O.3     1  UNL1       -0.3909
     97 O           3.0010   38.3820   24.5550 O.3     1  UNL1       -0.3916
     98 O           2.6400   35.7550   24.3180 O.3     1  UNL1       -0.3916
     99 O           2.3440   33.1570   23.9130 O.3     1  UNL1       -0.3916
    100 O           2.0790   30.6000   23.3050 O.3     1  UNL1       -0.3916
    101 O           5.4000   29.0160   21.2560 O.3     1  UNL1       -0.3916
    102 O           3.0980   28.4250   17.0680 O.3     1  UNL1       -0.3874
@<TRIPOS>BOND
     1    51    89    1
     2    29    89    1
     3    89    58    1
     4    89    75    1
     5   102    10    1
     6   102    74    1
     7     8    77    1
     8     6    80    1
     9    75    76    2
    10    75    74    1
    11    77    76    1
    12    77    78    2
    13    76     9    1
    14    74    24    1
    15    74    73    1
    16     3    82    1
    17    80    78    1
    18    80    81    2
    19    78     7    1
    20    82    81    1
    21    82    83    2
    22    47    73    1
    23    81     5    1
    24     1    84    1
    25    26    86    1
    26    84    83    1
    27    84    85    2
    28    83     4    1
    29    73    23    1
    30    73    72    1
    31    49    86    1
    32    85    86    1
    33    85     2    1
    34    86    87    1
    35    22    72    1
    36    72   101    1
    37    72    71    1
    38    50    88    1
    39    40   101    1
    40    21    71    1
    41    27    87    1
    42    87    88    1
    43    87    91    1
    44    19    69    1
    45    28    88    1
    46    88    57    1
    47    17    67    1
    48    71    46    1
    49    71    70    1
    50    45    69    1
    51    15    65    1
    52    13    63    1
    53    69    70    1
    54    69    68    1
    55    44    67    1
    56    42    63    1
    57    91    59    1
    58    67    68    1
    59    67    66    1
    60    43    65    1
    61    70    20    1
    62    70   100    1
    63    65    66    1
    64    65    64    1
    65    63    64    1
    66    63    62    1
    67    60    59    2
    68    12    62    1
    69    59    61    1
    70    68    18    1
    71    68    99    1
    72    66    16    1
    73    66    98    1
    74    64    14    1
    75    64    97    1
    76   100    39    1
    77    62    61    1
    78    62    96    1
    79    99    38    1
    80    61    11    1
    81    61    79    1
    82    98    37    1
    83    96    35    1
    84    25    79    1
    85    97    36    1
    86    52    90    1
    87    79    90    1
    88    79    48    1
    89    90    30    1
    90    90    92    1
    91    31    92    1
    92    54    93    1
    93    92    93    1
    94    92    53    1
    95    93    32    1
    96    93    94    1
    97    33    94    1
    98    56    95    1
    99    94    95    1
   100    94    55    1
   101    95    41    1
   102    95    34    1
