@<TRIPOS>MOLECULE
44.41886
 102 102 0 0 0
SMALL
GASTEIGER

@<TRIPOS>ATOM
      1 H           1.1480   45.5230   24.6250 H       1  UNL1        0.0614
      2 H           1.7350   45.3270   21.6140 H       1  UNL1        0.0573
      3 H           3.1940   45.9470   25.9330 H       1  UNL1        0.0618
      4 H           3.7090   45.9330   22.9000 H       1  UNL1        0.0617
      5 H           5.7270   46.3930   24.1770 H       1  UNL1        0.0618
      6 H           5.2740   46.2900   27.2180 H       1  UNL1        0.0618
      7 H           7.7650   46.8010   25.4230 H       1  UNL1        0.0618
      8 H           7.3920   46.5160   28.4570 H       1  UNL1        0.0618
      9 H           9.7830   47.2040   26.6110 H       1  UNL1        0.0618
     10 H          13.0120   48.1520   29.2630 H       1  UNL1        0.2102
     11 H           0.9570   40.3560   24.2260 H       1  UNL1        0.0439
     12 H           3.3740   42.1940   24.5370 H       1  UNL1        0.0602
     13 H           2.9690   40.0650   22.6710 H       1  UNL1        0.0315
     14 H           5.5060   39.9930   22.4980 H       1  UNL1        0.0595
     15 H           5.9790   40.8700   24.8650 H       1  UNL1        0.0315
     16 H           7.8010   40.9290   23.1630 H       1  UNL1        0.0595
     17 H           8.0860   42.0470   25.4330 H       1  UNL1        0.0315
     18 H          10.0740   42.0390   23.9070 H       1  UNL1        0.0595
     19 H          10.0740   43.2450   26.1400 H       1  UNL1        0.0315
     20 H          12.2470   43.1930   24.9330 H       1  UNL1        0.0595
     21 H          11.7520   46.0660   25.8400 H       1  UNL1        0.0315
     22 H          11.0530   44.3540   27.6770 H       1  UNL1        0.0595
     23 H          13.5690   45.9910   28.2770 H       1  UNL1        0.0318
     24 H          11.8480   47.5550   27.5080 H       1  UNL1        0.0641
     25 H           0.9880   43.1490   25.4980 H       1  UNL1        0.0274
     26 H          -0.7780   45.5760   21.6890 H       1  UNL1        0.0343
     27 H          -1.6040   43.3000   21.8370 H       1  UNL1        0.0734
     28 H           1.0540   43.3660   20.3500 H       1  UNL1        0.0265
     29 H           8.6920   46.0790   30.0760 H       1  UNL1        0.0275
     30 H          -0.9260   40.7720   25.7950 H       1  UNL1        0.0265
     31 H          -0.9170   43.5720   27.0420 H       1  UNL1        0.0265
     32 H          -3.0140   41.3440   27.1960 H       1  UNL1        0.0265
     33 H          -2.8730   44.1090   28.5190 H       1  UNL1        0.0263
     34 H          -5.0160   43.4680   29.5760 H       1  UNL1        0.0230
     35 H           2.7800   39.7880   25.9260 H       1  UNL1        0.2098
     36 H           3.8210   42.1440   21.9960 H       1  UNL1        0.2098
     37 H           6.3620   42.4370   21.8020 H       1  UNL1        0.2098
     38 H           8.7490   43.4710   22.3570 H       1  UNL1        0.2098
     39 H          11.1130   44.4620   23.0950 H       1  UNL1        0.2098
     40 H          12.7960   43.2050   28.5720 H       1  UNL1        0.2098
     41 H          -5.0540   41.9610   28.6440 H       1  UNL1        0.0230
     42 H           3.8600   39.3060   23.9820 H       1  UNL1        0.0315
     43 H           5.4200   42.4570   24.2930 H       1  UNL1        0.0315
     44 H           7.5420   43.5650   24.6970 H       1  UNL1        0.0315
     45 H           9.6320   44.7350   25.2850 H       1  UNL1        0.0315
     46 H          13.2910   45.2480   25.7680 H       1  UNL1        0.0315
     47 H          12.5280   45.3010   29.4680 H       1  UNL1        0.0318
     48 H           1.2740   41.7350   26.4940 H       1  UNL1        0.0274
     49 H          -0.8010   44.9880   23.3500 H       1  UNL1        0.0343
     50 H          -0.5540   43.7470   19.7410 H       1  UNL1        0.0265
     51 H           9.9110   47.1730   30.7190 H       1  UNL1        0.0275
     52 H          -1.2790   42.2580   24.9150 H       1  UNL1        0.0265
     53 H          -0.7080   42.0480   27.9080 H       1  UNL1        0.0265
     54 H          -3.2120   42.8780   26.3450 H       1  UNL1        0.0265
     55 H          -2.7270   42.5630   29.3570 H       1  UNL1        0.0263
     56 H          -5.1960   43.5230   27.8140 H       1  UNL1        0.0230
     57 H          -0.1490   42.0860   20.2270 H       1  UNL1        0.0265
     58 H          10.3190   45.4860   30.3450 H       1  UNL1        0.0275
     59 C           1.2020   42.1560   23.0640 C.2     1  UNL1        0.3130
     60 O           2.1090   42.4540   22.2960 O.2     1  UNL1       -0.2504
     61 C           1.4100   41.3470   24.3460 C.3     1  UNL1        0.0823
     62 C           2.9430   41.1880   24.5480 C.3     1  UNL1        0.0705
     63 C           3.6380   40.2740   23.5140 C.3     1  UNL1        0.0001
     64 C           4.9630   40.8310   22.9510 C.3     1  UNL1        0.0600
     65 C           5.8760   41.5100   23.9810 C.3     1  UNL1       -0.0006
     66 C           7.2750   41.8500   23.4350 C.3     1  UNL1        0.0599
     67 C           8.0690   42.6220   24.4980 C.3     1  UNL1       -0.0006
     68 C           9.5100   42.9620   24.0850 C.3     1  UNL1        0.0599
     69 C          10.1780   43.7870   25.1950 C.3     1  UNL1       -0.0006
     70 C          11.6600   44.1180   24.9490 C.3     1  UNL1        0.0599
     71 C          12.2270   45.0920   25.9960 C.3     1  UNL1       -0.0006
     72 C          12.0820   44.6460   27.4540 C.3     1  UNL1        0.0602
     73 C          12.5170   45.7270   28.4550 C.3     1  UNL1        0.0032
     74 C          11.6660   47.0090   28.4400 C.3     1  UNL1        0.0786
     75 C          10.1740   46.7690   28.6240 C.2     1  UNL1       -0.0445
     76 C           9.3480   46.9060   27.5660 C.2     1  UNL1       -0.0604
     77 C           7.9190   46.6790   27.5230 C.2     1  UNL1       -0.0617
     78 C           7.2400   46.6510   26.3660 C.2     1  UNL1       -0.0618
     79 C           0.7920   42.0730   25.5700 C.3     1  UNL1       -0.0377
     80 C           5.8170   46.4010   26.2830 C.2     1  UNL1       -0.0618
     81 C           5.1740   46.2930   25.1100 C.2     1  UNL1       -0.0618
     82 C           3.7550   46.0280   25.0050 C.2     1  UNL1       -0.0618
     83 C           3.1380   45.8660   23.8250 C.2     1  UNL1       -0.0621
     84 C           1.7300   45.5650   23.7070 C.2     1  UNL1       -0.0656
     85 C           1.1460   45.2930   22.5290 C.2     1  UNL1       -0.0805
     86 C          -0.2930   44.8780   22.3830 C.3     1  UNL1        0.0026
     87 C          -0.5160   43.4330   21.8850 C.3     1  UNL1        0.1037
     88 C          -0.0090   43.1430   20.4740 C.3     1  UNL1       -0.0274
     89 C           9.7460   46.3560   30.0100 C.3     1  UNL1       -0.0411
     90 C          -0.7150   41.8470   25.7550 C.3     1  UNL1       -0.0522
     91 O          -0.1050   42.4630   22.8810 O.3     1  UNL1       -0.4611
     92 C          -1.2030   42.5130   27.0460 C.3     1  UNL1       -0.0530
     93 C          -2.7190   42.4000   27.2010 C.3     1  UNL1       -0.0533
     94 C          -3.1910   43.0610   28.4970 C.3     1  UNL1       -0.0559
     95 C          -4.7030   42.9970   28.6380 C.3     1  UNL1       -0.0653
     96 O           3.2360   40.6440   25.8430 O.3     1  UNL1       -0.3909
     97 O           4.7180   41.7540   21.8840 O.3     1  UNL1       -0.3916
     98 O           7.2000   42.6690   22.2650 O.3     1  UNL1       -0.3916
     99 O           9.5420   43.7320   22.8820 O.3     1  UNL1       -0.3916
    100 O          11.8410   44.7630   23.6830 O.3     1  UNL1       -0.3916
    101 O          12.8910   43.4830   27.6440 O.3     1  UNL1       -0.3916
    102 O          12.1110   47.8670   29.4910 O.3     1  UNL1       -0.3874
@<TRIPOS>BOND
     1    50    88    1
     2    57    88    1
     3    28    88    1
     4    88    87    1
     5     2    85    1
     6    26    86    1
     7    37    98    1
     8    27    87    1
     9    97    36    1
    10    97    64    1
    11    87    86    1
    12    87    91    1
    13    98    66    1
    14    60    59    2
    15    38    99    1
    16    86    85    1
    17    86    49    1
    18    14    64    1
    19    85    84    2
    20    13    63    1
    21    91    59    1
    22    99    68    1
    23     4    83    1
    24    64    63    1
    25    64    65    1
    26    59    61    1
    27    39   100    1
    28    16    66    1
    29    66    65    1
    30    66    67    1
    31    63    42    1
    32    63    62    1
    33   100    70    1
    34    84    83    1
    35    84     1    1
    36    83    82    2
    37    18    68    1
    38    65    43    1
    39    65    15    1
    40    68    67    1
    41    68    69    1
    42     5    81    1
    43    11    61    1
    44    61    62    1
    45    61    79    1
    46    67    44    1
    47    67    17    1
    48    12    62    1
    49    62    96    1
    50    52    90    1
    51    20    70    1
    52    70    69    1
    53    70    71    1
    54    82    81    1
    55    82     3    1
    56    81    80    2
    57    69    45    1
    58    69    19    1
    59     7    78    1
    60    25    79    1
    61    79    90    1
    62    79    48    1
    63    90    30    1
    64    90    92    1
    65    46    71    1
    66    21    71    1
    67    96    35    1
    68    71    72    1
    69    80    78    1
    70    80     6    1
    71    54    93    1
    72    78    77    2
    73     9    76    1
    74    31    92    1
    75    92    93    1
    76    92    53    1
    77    32    93    1
    78    93    94    1
    79    72   101    1
    80    72    22    1
    81    72    73    1
    82    24    74    1
    83    77    76    1
    84    77     8    1
    85    76    75    2
    86   101    40    1
    87    56    95    1
    88    23    73    1
    89    74    73    1
    90    74    75    1
    91    74   102    1
    92    73    47    1
    93    94    33    1
    94    94    95    1
    95    94    55    1
    96    75    89    1
    97    95    41    1
    98    95    34    1
    99    10   102    1
   100    89    29    1
   101    89    58    1
   102    89    51    1
