@<TRIPOS>MOLECULE
42.61215
 102 102 0 0 0
SMALL
GASTEIGER

@<TRIPOS>ATOM
      1 H          -0.3050   39.4370   27.1740 H       1  UNL1        0.0614
      2 H           1.8880   41.1270   28.5060 H       1  UNL1        0.0573
      3 H          -0.0630   37.0690   27.5910 H       1  UNL1        0.0618
      4 H           2.3520   38.6820   28.6060 H       1  UNL1        0.0617
      5 H           2.7760   36.2100   28.5270 H       1  UNL1        0.0618
      6 H           0.1530   34.6980   27.9820 H       1  UNL1        0.0618
      7 H           3.0740   33.7180   28.3940 H       1  UNL1        0.0618
      8 H           0.3340   32.3330   28.3530 H       1  UNL1        0.0618
      9 H           3.2260   31.2640   28.1540 H       1  UNL1        0.0618
     10 H           3.1970   27.2410   29.4150 H       1  UNL1        0.2102
     11 H           3.9460   40.8110   25.0250 H       1  UNL1        0.0439
     12 H           1.7670   40.1720   23.4870 H       1  UNL1        0.0602
     13 H           3.1600   38.6870   24.9230 H       1  UNL1        0.0315
     14 H           1.4850   37.6630   23.2630 H       1  UNL1        0.0595
     15 H           2.5780   36.2880   24.9610 H       1  UNL1        0.0315
     16 H           1.4410   34.9790   23.0350 H       1  UNL1        0.0595
     17 H           2.1440   33.8130   25.0570 H       1  UNL1        0.0315
     18 H           1.7280   32.2530   23.0430 H       1  UNL1        0.0595
     19 H           2.0280   31.3220   25.2760 H       1  UNL1        0.0315
     20 H           2.2880   29.6000   23.3460 H       1  UNL1        0.0595
     21 H           3.9130   29.1960   25.9150 H       1  UNL1        0.0315
     22 H           1.2310   29.4040   25.9460 H       1  UNL1        0.0595
     23 H           2.6740   26.9370   27.0790 H       1  UNL1        0.0318
     24 H           3.5510   29.0010   28.1170 H       1  UNL1        0.0641
     25 H           4.5540   42.3920   22.4940 H       1  UNL1        0.0274
     26 H          -0.1230   42.7440   28.0630 H       1  UNL1        0.0343
     27 H           0.5750   43.4600   25.6460 H       1  UNL1        0.0734
     28 H           2.8560   43.2330   27.7030 H       1  UNL1        0.0265
     29 H          -0.2870   30.5240   29.3730 H       1  UNL1        0.0275
     30 H           5.8770   42.0690   25.2430 H       1  UNL1        0.0265
     31 H           6.8080   43.7080   22.8310 H       1  UNL1        0.0265
     32 H           7.9830   43.2650   25.6310 H       1  UNL1        0.0265
     33 H           9.0370   44.9190   23.2760 H       1  UNL1        0.0263
     34 H          10.9750   45.3330   24.7620 H       1  UNL1        0.0230
     35 H           3.9790   40.0960   21.6990 H       1  UNL1        0.2098
     36 H           2.6940   38.2870   21.4170 H       1  UNL1        0.2098
     37 H           3.1930   35.6520   21.5840 H       1  UNL1        0.2098
     38 H           3.7020   33.0790   22.0230 H       1  UNL1        0.2098
     39 H           4.3410   30.6090   22.7590 H       1  UNL1        0.2098
     40 H           0.2650   27.4410   25.3570 H       1  UNL1        0.2098
     41 H          10.1960   44.4310   26.0730 H       1  UNL1        0.0230
     42 H           4.3780   38.6130   23.6330 H       1  UNL1        0.0315
     43 H           4.0660   36.2140   24.0060 H       1  UNL1        0.0315
     44 H           3.8400   33.8650   24.5580 H       1  UNL1        0.0315
     45 H           3.7800   31.5360   25.1920 H       1  UNL1        0.0315
     46 H           3.6230   27.9050   24.7690 H       1  UNL1        0.0315
     47 H           1.0470   27.3460   27.4850 H       1  UNL1        0.0318
     48 H           5.4650   40.9660   23.0100 H       1  UNL1        0.0274
     49 H          -0.5700   41.7130   26.7100 H       1  UNL1        0.0343
     50 H           1.5960   44.4920   27.7300 H       1  UNL1        0.0265
     51 H           0.1710   28.8750   29.7190 H       1  UNL1        0.0275
     52 H           5.1010   43.5310   24.6390 H       1  UNL1        0.0265
     53 H           7.5620   42.2100   23.3850 H       1  UNL1        0.0265
     54 H           7.2730   44.7700   25.0460 H       1  UNL1        0.0265
     55 H           9.7370   43.4000   23.8400 H       1  UNL1        0.0263
     56 H           9.4940   45.9600   25.5080 H       1  UNL1        0.0230
     57 H           2.7530   44.3920   26.3920 H       1  UNL1        0.0265
     58 H          -0.3580   29.3130   28.0830 H       1  UNL1        0.0275
     59 C           2.6040   42.3050   24.4490 C.2     1  UNL1        0.3130
     60 O           2.4440   43.3750   23.8860 O.2     1  UNL1       -0.2504
     61 C           3.5940   41.2170   24.0640 C.3     1  UNL1        0.0823
     62 C           2.8470   40.0920   23.3130 C.3     1  UNL1        0.0705
     63 C           3.3040   38.7190   23.8360 C.3     1  UNL1        0.0001
     64 C           2.5700   37.5290   23.2000 C.3     1  UNL1        0.0600
     65 C           2.9700   36.2430   23.9380 C.3     1  UNL1       -0.0006
     66 C           2.5130   34.9440   23.2590 C.3     1  UNL1        0.0599
     67 C           2.8110   33.7570   24.1880 C.3     1  UNL1       -0.0006
     68 C           2.7020   32.3740   23.5290 C.3     1  UNL1        0.0599
     69 C           2.8890   31.2850   24.6000 C.3     1  UNL1       -0.0006
     70 C           3.0880   29.8640   24.0460 C.3     1  UNL1        0.0599
     71 C           3.1890   28.8280   25.1780 C.3     1  UNL1       -0.0006
     72 C           1.8430   28.5060   25.8350 C.3     1  UNL1        0.0602
     73 C           2.0030   27.8000   27.1890 C.3     1  UNL1        0.0032
     74 C           2.5170   28.7040   28.3240 C.3     1  UNL1        0.0786
     75 C           1.6490   29.9310   28.5550 C.2     1  UNL1       -0.0445
     76 C           2.1660   31.1660   28.3860 C.2     1  UNL1       -0.0604
     77 C           1.4180   32.4050   28.3870 C.2     1  UNL1       -0.0617
     78 C           1.9920   33.6180   28.3530 C.2     1  UNL1       -0.0618
     79 C           4.8380   41.7920   23.3670 C.3     1  UNL1       -0.0377
     80 C           1.2110   34.8270   28.2050 C.2     1  UNL1       -0.0618
     81 C           1.7250   36.0630   28.2850 C.2     1  UNL1       -0.0618
     82 C           0.9300   37.2390   28.0060 C.2     1  UNL1       -0.0618
     83 C           1.3680   38.4950   28.1810 C.2     1  UNL1       -0.0621
     84 C           0.5980   39.6390   27.7490 C.2     1  UNL1       -0.0656
     85 C           0.9870   40.9090   27.9390 C.2     1  UNL1       -0.0805
     86 C           0.2850   42.0830   27.2910 C.3     1  UNL1        0.0026
     87 C           1.2010   42.8730   26.3280 C.3     1  UNL1        0.1037
     88 C           2.1490   43.8000   27.0880 C.3     1  UNL1       -0.0274
     89 C           0.2180   29.6520   28.9490 C.3     1  UNL1       -0.0411
     90 C           5.6710   42.6470   24.3330 C.3     1  UNL1       -0.0522
     91 O           1.9720   41.9070   25.5840 O.3     1  UNL1       -0.4611
     92 C           6.9980   43.0900   23.7160 C.3     1  UNL1       -0.0530
     93 C           7.8280   43.8770   24.7330 C.3     1  UNL1       -0.0533
     94 C           9.1820   44.2890   24.1610 C.3     1  UNL1       -0.0559
     95 C          10.0080   45.0480   25.1880 C.3     1  UNL1       -0.0653
     96 O           3.0250   40.1440   21.8970 O.3     1  UNL1       -0.3909
     97 O           2.9200   37.4200   21.8200 O.3     1  UNL1       -0.3916
     98 O           3.2120   34.7710   22.0250 O.3     1  UNL1       -0.3916
     99 O           3.7110   32.2320   22.5280 O.3     1  UNL1       -0.3916
    100 O           4.3300   29.8120   23.3360 O.3     1  UNL1       -0.3916
    101 O           1.1250   27.6400   24.9500 O.3     1  UNL1       -0.3916
    102 O           2.5470   27.9540   29.5360 O.3     1  UNL1       -0.3874
@<TRIPOS>BOND
     1    36    97    1
     2    37    98    1
     3    35    96    1
     4    97    64    1
     5    96    62    1
     6    38    99    1
     7    98    66    1
     8    25    79    1
     9    99    68    1
    10    39   100    1
    11    31    92    1
    12    48    79    1
    13    16    66    1
    14    18    68    1
    15    64    14    1
    16    64    63    1
    17    64    65    1
    18    66    65    1
    19    66    67    1
    20    33    94    1
    21    62    12    1
    22    62    63    1
    23    62    61    1
    24   100    70    1
    25    20    70    1
    26    79    61    1
    27    79    90    1
    28    53    92    1
    29    68    67    1
    30    68    69    1
    31    42    63    1
    32    92    90    1
    33    92    93    1
    34    63    13    1
    35    55    94    1
    36    60    59    2
    37    65    43    1
    38    65    15    1
    39    70    69    1
    40    70    71    1
    41    61    59    1
    42    61    11    1
    43    94    93    1
    44    94    95    1
    45    67    44    1
    46    67    17    1
    47    90    52    1
    48    90    30    1
    49    59    91    1
    50    69    45    1
    51    69    19    1
    52    93    54    1
    53    93    32    1
    54    34    95    1
    55    46    71    1
    56   101    40    1
    57   101    72    1
    58    71    72    1
    59    71    21    1
    60    95    56    1
    61    95    41    1
    62    91    87    1
    63    27    87    1
    64    72    22    1
    65    72    73    1
    66    87    88    1
    67    87    86    1
    68    57    88    1
    69    49    86    1
    70    23    73    1
    71    88    28    1
    72    88    50    1
    73     1    84    1
    74    73    47    1
    75    73    74    1
    76    86    85    1
    77    86    26    1
    78     3    82    1
    79    84    85    2
    80    84    83    1
    81    85     2    1
    82     6    80    1
    83    82    83    2
    84    82    81    1
    85    58    89    1
    86    24    74    1
    87     9    76    1
    88    83     4    1
    89    80    81    2
    90    80    78    1
    91    81     5    1
    92    74    75    1
    93    74   102    1
    94    78    77    2
    95    78     7    1
    96     8    77    1
    97    76    77    1
    98    76    75    2
    99    75    89    1
   100    89    29    1
   101    89    51    1
   102    10   102    1
