@<TRIPOS>MOLECULE
44.65996
 102 102 0 0 0
SMALL
GASTEIGER

@<TRIPOS>ATOM
      1 H           3.7700   48.5940   15.9930 H       1  UNL1        0.0614
      2 H           6.0100   48.2240   18.0720 H       1  UNL1        0.0573
      3 H           2.4920   46.5110   15.6500 H       1  UNL1        0.0618
      4 H           4.6720   46.2290   17.8050 H       1  UNL1        0.0617
      5 H           3.1460   44.3540   17.7940 H       1  UNL1        0.0618
      6 H           1.1010   44.4670   15.4970 H       1  UNL1        0.0618
      7 H           1.4960   42.5890   17.9450 H       1  UNL1        0.0618
      8 H          -0.2890   42.4170   15.4520 H       1  UNL1        0.0618
      9 H          -0.2340   40.9620   18.1740 H       1  UNL1        0.0618
     10 H          -1.4050   38.1520   19.1190 H       1  UNL1        0.2102
     11 H           1.8790   50.0410   19.7670 H       1  UNL1        0.0439
     12 H           2.7050   47.5090   19.5300 H       1  UNL1        0.0602
     13 H           0.4350   48.2830   18.9810 H       1  UNL1        0.0315
     14 H           0.8470   45.7440   19.2170 H       1  UNL1        0.0595
     15 H          -1.2440   46.4300   18.2400 H       1  UNL1        0.0315
     16 H          -1.2710   44.0280   19.2640 H       1  UNL1        0.0595
     17 H          -3.0740   44.6220   17.7440 H       1  UNL1        0.0315
     18 H          -4.5200   43.8680   20.3510 H       1  UNL1        0.0595
     19 H          -2.7590   42.1450   19.8270 H       1  UNL1        0.0315
     20 H          -5.1090   41.5430   20.6620 H       1  UNL1        0.0595
     21 H          -4.7420   39.3460   20.7460 H       1  UNL1        0.0315
     22 H          -3.8060   37.8100   19.1280 H       1  UNL1        0.0595
     23 H          -3.8080   40.1730   17.1950 H       1  UNL1        0.0318
     24 H          -1.6960   38.0440   17.0590 H       1  UNL1        0.0641
     25 H           2.9590   49.5230   22.5950 H       1  UNL1        0.0274
     26 H           4.8510   50.6470   16.5320 H       1  UNL1        0.0343
     27 H           6.1420   50.5690   19.3260 H       1  UNL1        0.0734
     28 H           4.7110   52.8190   17.8250 H       1  UNL1        0.0265
     29 H          -1.0120   40.5820   14.4910 H       1  UNL1        0.0275
     30 H           1.8270   52.0690   21.3330 H       1  UNL1        0.0265
     31 H           3.0120   51.4400   24.0910 H       1  UNL1        0.0265
     32 H           2.0350   54.1020   22.9330 H       1  UNL1        0.0265
     33 H           3.2530   53.3660   25.6520 H       1  UNL1        0.0263
     34 H           2.8930   55.7450   26.2120 H       1  UNL1        0.0230
     35 H           1.8730   47.6060   22.2500 H       1  UNL1        0.2098
     36 H           1.1740   45.7860   21.4350 H       1  UNL1        0.2098
     37 H          -1.3360   44.9280   21.4100 H       1  UNL1        0.2098
     38 H          -5.7850   44.6300   18.6450 H       1  UNL1        0.2098
     39 H          -5.9900   42.0520   18.5260 H       1  UNL1        0.2098
     40 H          -6.0000   39.4110   18.4080 H       1  UNL1        0.2098
     41 H           2.3190   56.0760   24.5680 H       1  UNL1        0.0230
     42 H           0.0060   48.2910   20.7020 H       1  UNL1        0.0315
     43 H          -1.8750   46.9790   19.7980 H       1  UNL1        0.0315
     44 H          -3.7940   45.7070   18.9020 H       1  UNL1        0.0315
     45 H          -3.4070   42.0340   18.1790 H       1  UNL1        0.0315
     46 H          -3.1220   39.8560   20.3500 H       1  UNL1        0.0315
     47 H          -3.8880   38.5430   16.6640 H       1  UNL1        0.0318
     48 H           1.2570   49.8150   22.2230 H       1  UNL1        0.0274
     49 H           6.5730   50.4380   16.8720 H       1  UNL1        0.0343
     50 H           6.4650   52.7170   18.1100 H       1  UNL1        0.0265
     51 H          -2.7020   40.3670   14.9760 H       1  UNL1        0.0275
     52 H           3.5390   51.7770   21.6480 H       1  UNL1        0.0265
     53 H           1.3280   51.8530   23.7610 H       1  UNL1        0.0265
     54 H           3.7270   53.6810   23.2020 H       1  UNL1        0.0265
     55 H           1.5720   53.8260   25.3780 H       1  UNL1        0.0263
     56 H           4.0090   55.6080   24.8430 H       1  UNL1        0.0230
     57 H           5.3310   52.8990   19.4680 H       1  UNL1        0.0265
     58 H          -1.6220   38.9690   14.7950 H       1  UNL1        0.0275
     59 C           3.9410   49.6440   20.0680 C.2     1  UNL1        0.3130
     60 O           4.8820   49.0280   20.5490 O.2     1  UNL1       -0.2504
     61 C           2.4870   49.4620   20.4760 C.3     1  UNL1        0.0823
     62 C           2.1040   47.9660   20.3240 C.3     1  UNL1        0.0705
     63 C           0.6200   47.7890   19.9430 C.3     1  UNL1        0.0001
     64 C           0.1730   46.3160   19.8640 C.3     1  UNL1        0.0600
     65 C          -1.2610   46.2080   19.3140 C.3     1  UNL1       -0.0006
     66 C          -1.9330   44.8460   19.5710 C.3     1  UNL1        0.0599
     67 C          -3.2640   44.7480   18.8180 C.3     1  UNL1       -0.0006
     68 C          -4.2250   43.6600   19.3160 C.3     1  UNL1        0.0599
     69 C          -3.6680   42.2280   19.2230 C.3     1  UNL1       -0.0006
     70 C          -4.7070   41.1930   19.7020 C.3     1  UNL1        0.0599
     71 C          -4.1340   39.7820   19.9400 C.3     1  UNL1       -0.0006
     72 C          -4.2040   38.7700   18.7800 C.3     1  UNL1        0.0602
     73 C          -3.4960   39.1630   17.4840 C.3     1  UNL1        0.0032
     74 C          -1.9640   39.0250   17.4720 C.3     1  UNL1        0.0786
     75 C          -1.3130   40.0940   16.5980 C.2     1  UNL1       -0.0445
     76 C          -0.4720   41.0160   17.1110 C.2     1  UNL1       -0.0604
     77 C           0.1150   42.1410   16.4210 C.2     1  UNL1       -0.0617
     78 C           1.0890   42.8770   16.9760 C.2     1  UNL1       -0.0618
     79 C           2.2820   50.0260   21.8930 C.3     1  UNL1       -0.0377
     80 C           1.6100   44.0830   16.3790 C.2     1  UNL1       -0.0618
     81 C           2.6390   44.7520   16.9160 C.2     1  UNL1       -0.0618
     82 C           3.0750   46.0440   16.4400 C.2     1  UNL1       -0.0618
     83 C           4.0980   46.6990   17.0070 C.2     1  UNL1       -0.0621
     84 C           4.4130   48.0730   16.7000 C.2     1  UNL1       -0.0656
     85 C           5.3780   48.7400   17.3490 C.2     1  UNL1       -0.0805
     86 C           5.5660   50.2290   17.2520 C.3     1  UNL1        0.0026
     87 C           5.3710   50.9070   18.6220 C.3     1  UNL1        0.1037
     88 C           5.4840   52.4220   18.4930 C.3     1  UNL1       -0.0274
     89 C          -1.6810   40.0080   15.1370 C.3     1  UNL1       -0.0411
     90 C           2.5260   51.5370   21.9890 C.3     1  UNL1       -0.0522
     91 O           4.0430   50.6260   19.1230 O.3     1  UNL1       -0.4611
     92 C           2.3600   52.0250   23.4300 C.3     1  UNL1       -0.0530
     93 C           2.7060   53.5080   23.5640 C.3     1  UNL1       -0.0533
     94 C           2.5960   53.9720   25.0170 C.3     1  UNL1       -0.0559
     95 C           2.9770   55.4360   25.1650 C.3     1  UNL1       -0.0653
     96 O           2.3700   47.2100   21.5100 O.3     1  UNL1       -0.3909
     97 O           0.2290   45.7310   21.1680 O.3     1  UNL1       -0.3916
     98 O          -2.1880   44.7100   20.9680 O.3     1  UNL1       -0.3916
     99 O          -5.4250   43.7320   18.5250 O.3     1  UNL1       -0.3916
    100 O          -5.8110   41.1210   18.7950 O.3     1  UNL1       -0.3916
    101 O          -5.5810   38.5210   18.4660 O.3     1  UNL1       -0.3916
    102 O          -1.4220   39.0670   18.7880 O.3     1  UNL1       -0.3874
@<TRIPOS>BOND
     1    29    89    1
     2    58    89    1
     3    51    89    1
     4    89    75    1
     5     8    77    1
     6     6    80    1
     7     3    82    1
     8     1    84    1
     9    80    81    2
    10    80    78    1
    11    77    78    2
    12    77    76    1
    13    82    81    1
    14    82    83    2
    15    26    86    1
    16    75    76    2
    17    75    74    1
    18    47    73    1
    19    84    83    1
    20    84    85    2
    21    49    86    1
    22    81     5    1
    23    78     7    1
    24    83     4    1
    25    24    74    1
    26    76     9    1
    27    23    73    1
    28    86    85    1
    29    86    87    1
    30    85     2    1
    31    74    73    1
    32    74   102    1
    33    73    72    1
    34    17    67    1
    35    28    88    1
    36    50    88    1
    37    45    69    1
    38    15    65    1
    39    40   101    1
    40   101    72    1
    41    88    87    1
    42    88    57    1
    43    99    38    1
    44    99    68    1
    45    39   100    1
    46    87    91    1
    47    87    27    1
    48    72    22    1
    49    72    71    1
    50   102    10    1
    51   100    70    1
    52    67    44    1
    53    67    68    1
    54    67    66    1
    55    13    63    1
    56    91    59    1
    57    14    64    1
    58    69    68    1
    59    69    70    1
    60    69    19    1
    61    16    66    1
    62    65    66    1
    63    65    43    1
    64    65    64    1
    65    68    18    1
    66    12    62    1
    67    66    98    1
    68    70    71    1
    69    70    20    1
    70    11    61    1
    71    64    63    1
    72    64    97    1
    73    71    46    1
    74    71    21    1
    75    63    62    1
    76    63    42    1
    77    59    61    1
    78    59    60    2
    79    62    61    1
    80    62    96    1
    81    61    79    1
    82    98    37    1
    83    97    36    1
    84    30    90    1
    85    96    35    1
    86    52    90    1
    87    79    90    1
    88    79    48    1
    89    79    25    1
    90    90    92    1
    91    32    93    1
    92    54    93    1
    93    92    93    1
    94    92    53    1
    95    92    31    1
    96    93    94    1
    97    41    95    1
    98    56    95    1
    99    94    95    1
   100    94    55    1
   101    94    33    1
   102    95    34    1
