@<TRIPOS>MOLECULE
34.32290
 102 102 0 0 0
SMALL
GASTEIGER

@<TRIPOS>ATOM
      1 H           0.2610   46.4700   22.4910 H       1  UNL1        0.0614
      2 H          -2.5070   45.2920   23.1320 H       1  UNL1        0.0573
      3 H           0.9220   48.2290   24.0700 H       1  UNL1        0.0618
      4 H          -1.8020   46.9800   24.7700 H       1  UNL1        0.0617
      5 H          -1.1260   48.6910   26.3700 H       1  UNL1        0.0618
      6 H           1.5950   49.9600   25.6950 H       1  UNL1        0.0618
      7 H          -0.4410   50.3290   28.0210 H       1  UNL1        0.0618
      8 H           2.2930   51.6070   27.4250 H       1  UNL1        0.0618
      9 H           2.0440   51.8940   29.8910 H       1  UNL1        0.0618
     10 H           0.1000   55.0300   31.9980 H       1  UNL1        0.2102
     11 H           2.4210   41.9040   23.4180 H       1  UNL1        0.0439
     12 H          -0.2240   41.7720   24.9680 H       1  UNL1        0.0602
     13 H           0.7760   44.0900   24.7630 H       1  UNL1        0.0315
     14 H          -0.3680   43.3810   26.9220 H       1  UNL1        0.0595
     15 H           0.4710   45.7010   26.6670 H       1  UNL1        0.0315
     16 H          -0.4060   44.9390   28.9680 H       1  UNL1        0.0595
     17 H           0.0920   47.3260   28.5040 H       1  UNL1        0.0315
     18 H          -0.4740   46.6330   30.9120 H       1  UNL1        0.0595
     19 H          -0.2810   49.0100   30.2210 H       1  UNL1        0.0315
     20 H          -0.6170   48.4830   32.7250 H       1  UNL1        0.0595
     21 H           1.1240   50.9280   32.1170 H       1  UNL1        0.0315
     22 H          -1.1860   50.8060   30.8680 H       1  UNL1        0.0595
     23 H          -0.9010   53.0210   32.9680 H       1  UNL1        0.0318
     24 H           1.1010   53.1160   31.5760 H       1  UNL1        0.0641
     25 H           0.0850   39.9640   22.9890 H       1  UNL1        0.0274
     26 H          -0.3920   44.8250   20.9100 H       1  UNL1        0.0343
     27 H          -2.5760   42.9480   21.9650 H       1  UNL1        0.0734
     28 H          -0.4630   42.4360   19.8170 H       1  UNL1        0.0265
     29 H          -0.8640   52.9900   27.7350 H       1  UNL1        0.0275
     30 H           2.8450   40.1820   21.6720 H       1  UNL1        0.0265
     31 H           0.5870   38.1440   21.2840 H       1  UNL1        0.0265
     32 H           3.3360   38.4040   19.9510 H       1  UNL1        0.0265
     33 H           1.0900   36.3520   19.5600 H       1  UNL1        0.0263
     34 H           2.6710   35.2720   17.9940 H       1  UNL1        0.0230
     35 H           2.4210   40.9710   25.6310 H       1  UNL1        0.2098
     36 H           1.2580   41.7670   27.3780 H       1  UNL1        0.2098
     37 H           1.5760   43.6190   29.2300 H       1  UNL1        0.2098
     38 H           1.6750   45.5670   31.0520 H       1  UNL1        0.2098
     39 H           1.6190   47.6170   32.7740 H       1  UNL1        0.2098
     40 H          -2.9650   51.1370   32.2540 H       1  UNL1        0.2098
     41 H           3.8400   36.5840   18.2260 H       1  UNL1        0.0230
     42 H           2.2970   43.4460   25.4090 H       1  UNL1        0.0315
     43 H           2.0830   45.1910   27.2030 H       1  UNL1        0.0315
     44 H           1.7990   47.0590   28.9050 H       1  UNL1        0.0315
     45 H           1.4640   48.9710   30.5280 H       1  UNL1        0.0315
     46 H           0.2190   50.6970   33.5950 H       1  UNL1        0.0315
     47 H          -1.9570   53.0770   31.6040 H       1  UNL1        0.0318
     48 H           1.6090   39.5410   23.7620 H       1  UNL1        0.0274
     49 H          -2.1140   44.9500   20.6190 H       1  UNL1        0.0343
     50 H          -2.2080   42.6190   19.5660 H       1  UNL1        0.0265
     51 H          -1.1880   54.2980   28.8520 H       1  UNL1        0.0275
     52 H           1.3020   40.5050   20.8750 H       1  UNL1        0.0265
     53 H           2.1320   37.8120   22.0700 H       1  UNL1        0.0265
     54 H           1.7890   38.7280   19.1640 H       1  UNL1        0.0265
     55 H           2.6360   36.0280   20.3480 H       1  UNL1        0.0263
     56 H           2.2860   36.9090   17.4330 H       1  UNL1        0.0230
     57 H          -1.5650   41.2360   20.4820 H       1  UNL1        0.0265
     58 H          -1.9150   52.7020   29.1260 H       1  UNL1        0.0275
     59 C           0.6500   42.5950   22.4660 C.2     1  UNL1        0.3130
     60 O           1.2530   43.2280   21.6090 O.2     1  UNL1       -0.2504
     61 C           1.3460   41.6780   23.4560 C.3     1  UNL1        0.0823
     62 C           0.8600   41.9230   24.9000 C.3     1  UNL1        0.0705
     63 C           1.2060   43.3290   25.4230 C.3     1  UNL1        0.0001
     64 C           0.7110   43.5660   26.8630 C.3     1  UNL1        0.0600
     65 C           1.0070   45.0030   27.3180 C.3     1  UNL1       -0.0006
     66 C           0.6270   45.2570   28.7860 C.3     1  UNL1        0.0599
     67 C           0.7730   46.7450   29.1350 C.3     1  UNL1       -0.0006
     68 C           0.4960   47.0510   30.6170 C.3     1  UNL1        0.0599
     69 C           0.4950   48.5690   30.8530 C.3     1  UNL1       -0.0006
     70 C           0.2810   48.9650   32.3250 C.3     1  UNL1        0.0599
     71 C           0.2040   50.4880   32.5160 C.3     1  UNL1       -0.0006
     72 C          -1.0360   51.1410   31.8970 C.3     1  UNL1        0.0602
     73 C          -0.9870   52.6750   31.9280 C.3     1  UNL1        0.0032
     74 C           0.1370   53.3070   31.0900 C.3     1  UNL1        0.0786
     75 C           0.1680   52.8260   29.6500 C.2     1  UNL1       -0.0445
     76 C           1.2020   52.0750   29.2210 C.2     1  UNL1       -0.0604
     77 C           1.3540   51.4200   27.9410 C.2     1  UNL1       -0.0617
     78 C           0.4700   50.5320   27.4620 C.2     1  UNL1       -0.0618
     79 C           1.1540   40.2090   23.0210 C.3     1  UNL1       -0.0377
     80 C           0.6740   49.7790   26.2450 C.2     1  UNL1       -0.0618
     81 C          -0.2080   48.8660   25.8120 C.2     1  UNL1       -0.0618
     82 C           0.0020   48.0630   24.6280 C.2     1  UNL1       -0.0618
     83 C          -0.8790   47.1390   24.2160 C.2     1  UNL1       -0.0621
     84 C          -0.6680   46.3270   23.0410 C.2     1  UNL1       -0.0656
     85 C          -1.5660   45.4320   22.6030 C.2     1  UNL1       -0.0805
     86 C          -1.3710   44.6140   21.3540 C.3     1  UNL1        0.0026
     87 C          -1.5580   43.1040   21.5850 C.3     1  UNL1        0.1037
     88 C          -1.4440   42.3070   20.2860 C.3     1  UNL1       -0.0274
     89 C          -1.0100   53.2190   28.7940 C.3     1  UNL1       -0.0411
     90 C           1.7840   39.9050   21.6550 C.3     1  UNL1       -0.0522
     91 O          -0.6990   42.5300   22.5990 O.3     1  UNL1       -0.4611
     92 C           1.6480   38.4230   21.2980 C.3     1  UNL1       -0.0530
     93 C           2.2760   38.1210   19.9370 C.3     1  UNL1       -0.0533
     94 C           2.1480   36.6400   19.5810 C.3     1  UNL1       -0.0559
     95 C           2.7740   36.3360   18.2290 C.3     1  UNL1       -0.0653
     96 O           1.4570   40.9620   25.7860 O.3     1  UNL1       -0.3909
     97 O           1.3550   42.6650   27.7680 O.3     1  UNL1       -0.3916
     98 O           1.4730   44.5020   29.6570 O.3     1  UNL1       -0.3916
     99 O           1.4970   46.4550   31.4440 O.3     1  UNL1       -0.3916
    100 O           1.3970   48.5180   33.1030 O.3     1  UNL1       -0.3916
    101 O          -2.1820   50.7030   32.6330 O.3     1  UNL1       -0.3916
    102 O          -0.0300   54.7230   31.0850 O.3     1  UNL1       -0.3874
@<TRIPOS>BOND
     1    56    95    1
     2    34    95    1
     3    41    95    1
     4    95    94    1
     5    54    93    1
     6    33    94    1
     7    50    88    1
     8    94    93    1
     9    94    55    1
    10    28    88    1
    11    93    32    1
    12    93    92    1
    13    88    57    1
    14    88    87    1
    15    49    86    1
    16    52    90    1
    17    26    86    1
    18    31    92    1
    19    92    90    1
    20    92    53    1
    21    86    87    1
    22    86    85    1
    23    87    27    1
    24    87    91    1
    25    60    59    2
    26    90    30    1
    27    90    79    1
    28    59    91    1
    29    59    61    1
    30     1    84    1
    31    85    84    2
    32    85     2    1
    33    25    79    1
    34    79    61    1
    35    79    48    1
    36    84    83    1
    37    11    61    1
    38    61    62    1
    39     3    82    1
    40    83    82    2
    41    83     4    1
    42    82    81    1
    43    13    63    1
    44    62    12    1
    45    62    63    1
    46    62    96    1
    47    42    63    1
    48    63    64    1
    49    35    96    1
    50     6    80    1
    51    81    80    2
    52    81     5    1
    53    80    78    1
    54    15    65    1
    55    64    14    1
    56    64    65    1
    57    64    97    1
    58    43    65    1
    59    65    66    1
    60    36    97    1
    61     8    77    1
    62    78    77    2
    63    78     7    1
    64    29    89    1
    65    77    76    1
    66    17    67    1
    67    66    16    1
    68    66    67    1
    69    66    98    1
    70    89    51    1
    71    89    58    1
    72    89    75    1
    73    44    67    1
    74    67    68    1
    75    76    75    2
    76    76     9    1
    77    37    98    1
    78    75    74    1
    79    19    69    1
    80    45    69    1
    81    68    69    1
    82    68    18    1
    83    68    99    1
    84    69    70    1
    85    22    72    1
    86    38    99    1
    87   102    74    1
    88   102    10    1
    89    74    24    1
    90    74    73    1
    91    47    73    1
    92    72    73    1
    93    72    71    1
    94    72   101    1
    95    73    23    1
    96    21    71    1
    97    40   101    1
    98    70    71    1
    99    70    20    1
   100    70   100    1
   101    71    46    1
   102    39   100    1
