@<TRIPOS>MOLECULE
42.63125
 102 102 0 0 0
SMALL
GASTEIGER

@<TRIPOS>ATOM
      1 H          -1.1950   43.4460   20.4370 H       1  UNL1        0.0614
      2 H          -2.3130   43.9200   23.2570 H       1  UNL1        0.0573
      3 H          -2.6520   41.9330   19.1410 H       1  UNL1        0.0618
      4 H          -3.5270   42.1970   22.0780 H       1  UNL1        0.0617
      5 H          -4.8160   40.5080   20.8710 H       1  UNL1        0.0618
      6 H          -4.0700   40.3780   17.8890 H       1  UNL1        0.0618
      7 H          -6.1010   38.8160   19.6590 H       1  UNL1        0.0618
      8 H          -5.3690   38.7240   16.6800 H       1  UNL1        0.0618
      9 H          -7.2950   37.1060   18.4960 H       1  UNL1        0.0618
     10 H          -9.4750   34.4980   15.8390 H       1  UNL1        0.2102
     11 H           2.0190   41.1390   25.1080 H       1  UNL1        0.0439
     12 H           0.5080   40.1840   22.6510 H       1  UNL1        0.0602
     13 H          -0.3690   39.7420   25.0060 H       1  UNL1        0.0315
     14 H           0.6980   37.2130   23.6160 H       1  UNL1        0.0595
     15 H          -1.0220   38.3680   22.2330 H       1  UNL1        0.0315
     16 H          -1.1900   35.8210   22.5480 H       1  UNL1        0.0595
     17 H          -2.6930   36.9360   20.9100 H       1  UNL1        0.0315
     18 H          -3.0860   34.4570   21.4830 H       1  UNL1        0.0595
     19 H          -4.3510   35.5050   19.6240 H       1  UNL1        0.0315
     20 H          -4.9990   33.1170   20.3850 H       1  UNL1        0.0595
     21 H          -7.3410   34.8330   19.4110 H       1  UNL1        0.0315
     22 H          -5.3410   34.7740   17.7720 H       1  UNL1        0.0595
     23 H          -7.7960   33.1350   16.9090 H       1  UNL1        0.0318
     24 H          -8.5310   35.3990   17.6060 H       1  UNL1        0.0641
     25 H           3.8610   41.0080   23.6000 H       1  UNL1        0.0274
     26 H          -0.8860   45.9970   22.5930 H       1  UNL1        0.0343
     27 H           1.0740   45.6140   23.8850 H       1  UNL1        0.0734
     28 H          -1.2300   44.2250   25.3160 H       1  UNL1        0.0265
     29 H          -5.8280   37.5560   15.0080 H       1  UNL1        0.0275
     30 H           2.2800   42.7700   21.6450 H       1  UNL1        0.0265
     31 H           5.1620   41.7260   21.6370 H       1  UNL1        0.0265
     32 H           3.6770   43.5010   19.6290 H       1  UNL1        0.0265
     33 H           6.5570   42.4410   19.6810 H       1  UNL1        0.0263
     34 H           6.8510   43.7860   17.6300 H       1  UNL1        0.0230
     35 H           2.8720   38.9660   23.6750 H       1  UNL1        0.2098
     36 H           0.3310   36.9750   25.8420 H       1  UNL1        0.2098
     37 H          -1.8520   36.2180   24.8290 H       1  UNL1        0.2098
     38 H          -3.8700   35.1330   23.6420 H       1  UNL1        0.2098
     39 H          -5.8800   34.0450   22.3940 H       1  UNL1        0.2098
     40 H          -4.8950   32.7340   16.8770 H       1  UNL1        0.2098
     41 H           5.1380   44.2370   17.6440 H       1  UNL1        0.0230
     42 H           1.1510   38.9800   25.3950 H       1  UNL1        0.0315
     43 H          -2.0650   38.5360   23.6590 H       1  UNL1        0.0315
     44 H          -3.8280   37.3370   22.2150 H       1  UNL1        0.0315
     45 H          -5.5630   36.1070   20.7710 H       1  UNL1        0.0315
     46 H          -7.3130   33.0860   19.4070 H       1  UNL1        0.0315
     47 H          -6.6290   33.7810   15.8160 H       1  UNL1        0.0318
     48 H           3.4360   42.6710   23.8940 H       1  UNL1        0.0274
     49 H           0.2010   44.8960   21.7450 H       1  UNL1        0.0343
     50 H          -0.8840   45.9550   25.2520 H       1  UNL1        0.0265
     51 H          -7.2580   36.7670   14.3750 H       1  UNL1        0.0275
     52 H           2.7500   41.0980   21.3490 H       1  UNL1        0.0265
     53 H           4.6880   43.4020   21.9170 H       1  UNL1        0.0265
     54 H           4.1460   41.8210   19.3490 H       1  UNL1        0.0265
     55 H           6.0870   44.1190   19.9560 H       1  UNL1        0.0263
     56 H           5.6110   42.5480   17.3680 H       1  UNL1        0.0230
     57 H           0.2410   44.8370   26.0550 H       1  UNL1        0.0265
     58 H          -5.8450   35.8040   14.8580 H       1  UNL1        0.0275
     59 C           0.6750   42.3710   24.0740 C.2     1  UNL1        0.3130
     60 O          -0.4930   42.1260   24.3440 O.2     1  UNL1       -0.2504
     61 C           1.7650   41.2980   24.0500 C.3     1  UNL1        0.0823
     62 C           1.1880   39.9710   23.4840 C.3     1  UNL1        0.0705
     63 C           0.4510   39.1630   24.5670 C.3     1  UNL1        0.0001
     64 C          -0.0870   37.7980   24.1090 C.3     1  UNL1        0.0600
     65 C          -1.3130   37.8970   23.1780 C.3     1  UNL1       -0.0006
     66 C          -1.9540   36.5210   22.9060 C.3     1  UNL1        0.0599
     67 C          -3.0950   36.5960   21.8720 C.3     1  UNL1       -0.0006
     68 C          -3.8180   35.2430   21.6980 C.3     1  UNL1        0.0599
     69 C          -4.8630   35.2860   20.5660 C.3     1  UNL1       -0.0006
     70 C          -5.6730   33.9770   20.4570 C.3     1  UNL1        0.0599
     71 C          -6.6730   33.9720   19.2930 C.3     1  UNL1       -0.0006
     72 C          -6.0460   33.9480   17.8970 C.3     1  UNL1        0.0602
     73 C          -7.1080   33.9820   16.7850 C.3     1  UNL1        0.0032
     74 C          -7.9190   35.2850   16.7040 C.3     1  UNL1        0.0786
     75 C          -7.0440   36.5120   16.5000 C.2     1  UNL1       -0.0445
     76 C          -6.8030   37.3280   17.5480 C.2     1  UNL1       -0.0604
     77 C          -5.8850   38.4430   17.5920 C.2     1  UNL1       -0.0617
     78 C          -5.6030   39.0930   18.7310 C.2     1  UNL1       -0.0618
     79 C           3.0860   41.7580   23.3930 C.3     1  UNL1       -0.0377
     80 C          -4.6000   40.1310   18.8070 C.2     1  UNL1       -0.0618
     81 C          -4.2860   40.7540   19.9520 C.2     1  UNL1       -0.0618
     82 C          -3.2310   41.7390   20.0410 C.2     1  UNL1       -0.0618
     83 C          -2.9430   42.3870   21.1790 C.2     1  UNL1       -0.0621
     84 C          -1.8560   43.3320   21.2930 C.2     1  UNL1       -0.0656
     85 C          -1.6350   44.0340   22.4140 C.2     1  UNL1       -0.0805
     86 C          -0.4810   44.9780   22.6010 C.3     1  UNL1        0.0026
     87 C           0.3440   44.7930   23.8930 C.3     1  UNL1        0.1037
     88 C          -0.4310   44.9600   25.1980 C.3     1  UNL1       -0.0274
     89 C          -6.4590   36.6720   15.1180 C.3     1  UNL1       -0.0411
     90 C           3.0340   42.0110   21.8820 C.3     1  UNL1       -0.0522
     91 O           1.1820   43.6120   23.8640 O.3     1  UNL1       -0.4611
     92 C           4.4060   42.4820   21.3890 C.3     1  UNL1       -0.0530
     93 C           4.4230   42.7380   19.8830 C.3     1  UNL1       -0.0533
     94 C           5.8080   43.2010   19.4260 C.3     1  UNL1       -0.0559
     95 C           5.8510   43.4570   17.9290 C.3     1  UNL1       -0.0653
     96 O           2.2290   39.1360   22.9650 O.3     1  UNL1       -0.3909
     97 O          -0.4640   37.0660   25.2870 O.3     1  UNL1       -0.3916
     98 O          -2.4930   35.9830   24.1200 O.3     1  UNL1       -0.3916
     99 O          -4.4870   34.8870   22.9130 O.3     1  UNL1       -0.3916
    100 O          -6.4650   33.8050   21.6400 O.3     1  UNL1       -0.3916
    101 O          -5.2900   32.7410   17.7670 O.3     1  UNL1       -0.3916
    102 O          -8.8360   35.1960   15.6160 O.3     1  UNL1       -0.3874
@<TRIPOS>BOND
     1    51    89    1
     2    58    89    1
     3    29    89    1
     4    89    75    1
     5   102    10    1
     6   102    74    1
     7    47    73    1
     8    75    74    1
     9    75    76    2
    10     8    77    1
    11    74    73    1
    12    74    24    1
    13    73    23    1
    14    73    72    1
    15    40   101    1
    16    56    95    1
    17    76    77    1
    18    76     9    1
    19    77    78    2
    20    34    95    1
    21    41    95    1
    22   101    72    1
    23    22    72    1
    24     6    80    1
    25    72    71    1
    26    95    94    1
    27    78    80    1
    28    78     7    1
    29    80    81    2
    30     3    82    1
    31    71    46    1
    32    71    21    1
    33    71    70    1
    34    54    93    1
    35    94    33    1
    36    94    93    1
    37    94    55    1
    38    19    69    1
    39    32    93    1
    40    93    92    1
    41    81    82    1
    42    81     5    1
    43    82    83    2
    44    20    70    1
    45     1    84    1
    46    70    69    1
    47    70   100    1
    48    69    45    1
    49    69    68    1
    50    17    67    1
    51    83    84    1
    52    83     4    1
    53    84    85    2
    54    52    90    1
    55    92    31    1
    56    92    90    1
    57    92    53    1
    58    18    68    1
    59   100    39    1
    60    30    90    1
    61    68    67    1
    62    68    99    1
    63    49    86    1
    64    67    44    1
    65    67    66    1
    66    90    79    1
    67    15    65    1
    68    85    86    1
    69    85     2    1
    70    16    66    1
    71    26    86    1
    72    86    87    1
    73    12    62    1
    74    66    65    1
    75    66    98    1
    76    99    38    1
    77    96    62    1
    78    96    35    1
    79    65    43    1
    80    65    64    1
    81    79    25    1
    82    79    48    1
    83    79    61    1
    84    62    61    1
    85    62    63    1
    86    14    64    1
    87    91    87    1
    88    91    59    1
    89    27    87    1
    90    87    88    1
    91    61    59    1
    92    61    11    1
    93    59    60    2
    94    64    63    1
    95    64    97    1
    96    98    37    1
    97    63    13    1
    98    63    42    1
    99    88    50    1
   100    88    28    1
   101    88    57    1
   102    97    36    1
