@<TRIPOS>MOLECULE
41.24805
 102 102 0 0 0
SMALL
GASTEIGER

@<TRIPOS>ATOM
      1 H          -2.1810   43.8410   19.1070 H       1  UNL1        0.0614
      2 H          -0.2820   41.9490   20.6030 H       1  UNL1        0.0573
      3 H          -4.3930   42.6200   18.7190 H       1  UNL1        0.0618
      4 H          -2.4890   41.1490   20.6280 H       1  UNL1        0.0617
      5 H          -4.6080   40.0850   20.5190 H       1  UNL1        0.0618
      6 H          -6.4070   41.1750   18.2780 H       1  UNL1        0.0618
      7 H          -6.5820   38.7500   20.2290 H       1  UNL1        0.0618
      8 H          -8.1690   39.5390   17.7250 H       1  UNL1        0.0618
      9 H          -8.3900   37.2480   19.8050 H       1  UNL1        0.0618
     10 H         -11.7020   34.8190   18.3400 H       1  UNL1        0.2102
     11 H           1.5250   41.4320   24.5970 H       1  UNL1        0.0439
     12 H           1.7560   40.3970   21.7140 H       1  UNL1        0.0602
     13 H          -0.6190   40.5920   22.5670 H       1  UNL1        0.0315
     14 H           0.0890   38.6380   21.0660 H       1  UNL1        0.0595
     15 H          -2.2890   39.0320   21.6110 H       1  UNL1        0.0315
     16 H          -1.6000   36.8010   20.4590 H       1  UNL1        0.0595
     17 H          -3.9510   37.5060   20.5090 H       1  UNL1        0.0315
     18 H          -3.4580   35.0330   19.8920 H       1  UNL1        0.0595
     19 H          -5.6790   35.9820   19.4880 H       1  UNL1        0.0315
     20 H          -5.4700   33.3800   19.4170 H       1  UNL1        0.0595
     21 H          -8.1520   34.5910   20.2820 H       1  UNL1        0.0315
     22 H          -7.2010   35.3590   17.9760 H       1  UNL1        0.0595
     23 H          -9.7110   33.5790   17.9720 H       1  UNL1        0.0318
     24 H          -9.9650   35.5890   19.4660 H       1  UNL1        0.0641
     25 H           3.7480   41.9900   22.5730 H       1  UNL1        0.0274
     26 H           0.1470   44.7000   19.2650 H       1  UNL1        0.0343
     27 H           1.9890   45.0060   20.8820 H       1  UNL1        0.0734
     28 H          -0.7750   44.9220   22.1480 H       1  UNL1        0.0265
     29 H          -9.2140   38.4140   16.2770 H       1  UNL1        0.0275
     30 H           3.3750   42.8850   25.4860 H       1  UNL1        0.0265
     31 H           5.5690   43.4670   23.4250 H       1  UNL1        0.0265
     32 H           5.2500   44.3880   26.3320 H       1  UNL1        0.0265
     33 H           7.4230   44.9640   24.2430 H       1  UNL1        0.0263
     34 H           8.5270   46.2080   26.0720 H       1  UNL1        0.0230
     35 H           2.2790   39.1410   24.2120 H       1  UNL1        0.2098
     36 H           1.3910   37.6830   22.7270 H       1  UNL1        0.2098
     37 H          -0.7340   36.0490   22.5330 H       1  UNL1        0.2098
     38 H          -2.9410   34.6020   22.1590 H       1  UNL1        0.2098
     39 H          -5.2460   33.3570   21.7560 H       1  UNL1        0.2098
     40 H          -7.1770   33.7350   16.3940 H       1  UNL1        0.2098
     41 H           7.1540   45.9010   27.1490 H       1  UNL1        0.0230
     42 H          -0.1580   39.6040   23.9650 H       1  UNL1        0.0315
     43 H          -2.1010   38.1710   23.1490 H       1  UNL1        0.0315
     44 H          -4.1180   36.9520   22.1840 H       1  UNL1        0.0315
     45 H          -6.1190   35.7920   21.1920 H       1  UNL1        0.0315
     46 H          -7.9740   32.9470   19.7090 H       1  UNL1        0.0315
     47 H          -9.2670   34.5850   16.6430 H       1  UNL1        0.0318
     48 H           3.8950   40.9730   23.9980 H       1  UNL1        0.0274
     49 H           1.2950   43.3640   19.3010 H       1  UNL1        0.0343
     50 H           0.0410   46.2710   21.3690 H       1  UNL1        0.0265
     51 H         -10.8340   37.7810   16.5530 H       1  UNL1        0.0275
     52 H           3.2000   43.9510   24.0930 H       1  UNL1        0.0265
     53 H           5.7510   42.4360   24.8460 H       1  UNL1        0.0265
     54 H           5.0480   45.4200   24.9140 H       1  UNL1        0.0265
     55 H           7.6270   43.9400   25.6660 H       1  UNL1        0.0263
     56 H           6.9480   46.9290   25.7180 H       1  UNL1        0.0230
     57 H           0.6540   45.6330   22.9100 H       1  UNL1        0.0265
     58 H          -9.5670   36.7530   15.8520 H       1  UNL1        0.0275
     59 C           1.0440   42.7000   22.9610 C.2     1  UNL1        0.3130
     60 O          -0.0980   42.9480   23.3260 O.2     1  UNL1       -0.2504
     61 C           1.8480   41.5510   23.5530 C.3     1  UNL1        0.0823
     62 C           1.5230   40.2530   22.7760 C.3     1  UNL1        0.0705
     63 C           0.0540   39.7990   22.9050 C.3     1  UNL1        0.0001
     64 C          -0.2490   38.5200   22.1020 C.3     1  UNL1        0.0600
     65 C          -1.7560   38.2140   22.1070 C.3     1  UNL1       -0.0006
     66 C          -2.1020   36.8770   21.4300 C.3     1  UNL1        0.0599
     67 C          -3.6210   36.7460   21.2270 C.3     1  UNL1       -0.0006
     68 C          -4.0560   35.3480   20.7550 C.3     1  UNL1        0.0599
     69 C          -5.5480   35.3440   20.3680 C.3     1  UNL1       -0.0006
     70 C          -6.1110   33.9340   20.1120 C.3     1  UNL1        0.0599
     71 C          -7.5610   33.9610   19.6070 C.3     1  UNL1       -0.0006
     72 C          -7.7190   34.4130   18.1520 C.3     1  UNL1        0.0602
     73 C          -9.1960   34.5210   17.7370 C.3     1  UNL1        0.0032
     74 C          -9.9610   35.6930   18.3760 C.3     1  UNL1        0.0786
     75 C          -9.4020   37.0510   17.9790 C.2     1  UNL1       -0.0445
     76 C          -8.5940   37.7080   18.8370 C.2     1  UNL1       -0.0604
     77 C          -7.8950   38.9490   18.5940 C.2     1  UNL1       -0.0617
     78 C          -6.8780   39.3510   19.3710 C.2     1  UNL1       -0.0618
     79 C           3.3650   41.8420   23.5910 C.3     1  UNL1       -0.0377
     80 C          -6.0800   40.5220   19.0840 C.2     1  UNL1       -0.0618
     81 C          -4.9330   40.7660   19.7340 C.2     1  UNL1       -0.0618
     82 C          -4.0470   41.8650   19.4210 C.2     1  UNL1       -0.0618
     83 C          -2.8160   41.9290   19.9450 C.2     1  UNL1       -0.0621
     84 C          -1.8530   42.9660   19.6620 C.2     1  UNL1       -0.0656
     85 C          -0.5850   42.8520   20.0820 C.2     1  UNL1       -0.0805
     86 C           0.5050   43.8630   19.8760 C.3     1  UNL1        0.0026
     87 C           1.1220   44.4030   21.1810 C.3     1  UNL1        0.1037
     88 C           0.2080   45.3570   21.9480 C.3     1  UNL1       -0.0274
     89 C          -9.7690   37.5300   16.5960 C.3     1  UNL1       -0.0411
     90 C           3.7170   43.0570   24.4580 C.3     1  UNL1       -0.0522
     91 O           1.7120   43.3260   21.9600 O.3     1  UNL1       -0.4611
     92 C           5.2250   43.3160   24.4560 C.3     1  UNL1       -0.0530
     93 C           5.5820   44.5420   25.2980 C.3     1  UNL1       -0.0533
     94 C           7.0870   44.8110   25.2760 C.3     1  UNL1       -0.0559
     95 C           7.4470   46.0340   26.1030 C.3     1  UNL1       -0.0653
     96 O           2.3530   39.1760   23.2390 O.3     1  UNL1       -0.3909
     97 O           0.4500   37.4070   22.6620 O.3     1  UNL1       -0.3916
     98 O          -1.6410   35.7950   22.2420 O.3     1  UNL1       -0.3916
     99 O          -3.8380   34.4010   21.8030 O.3     1  UNL1       -0.3916
    100 O          -6.1320   33.2150   21.3510 O.3     1  UNL1       -0.3916
    101 O          -7.0850   33.4400   17.3170 O.3     1  UNL1       -0.3916
    102 O         -11.3270   35.6350   17.9680 O.3     1  UNL1       -0.3874
@<TRIPOS>BOND
     1    58    89    1
     2    29    89    1
     3    40   101    1
     4    51    89    1
     5    89    75    1
     6    47    73    1
     7   101    72    1
     8     8    77    1
     9    73    23    1
    10    73    72    1
    11    73    74    1
    12   102    10    1
    13   102    74    1
    14    22    72    1
    15    75    74    1
    16    75    76    2
    17    72    71    1
    18     6    80    1
    19    74    24    1
    20    77    76    1
    21    77    78    2
    22     3    82    1
    23    76     9    1
    24    80    78    1
    25    80    81    2
    26     1    84    1
    27    26    86    1
    28    49    86    1
    29    78     7    1
    30    20    70    1
    31    82    81    1
    32    82    83    2
    33    19    69    1
    34    71    46    1
    35    71    70    1
    36    71    21    1
    37    84    83    1
    38    84    85    2
    39    81     5    1
    40    86    85    1
    41    86    87    1
    42    18    68    1
    43    83     4    1
    44    85     2    1
    45    70    69    1
    46    70   100    1
    47    69    68    1
    48    69    45    1
    49    16    66    1
    50    17    67    1
    51    68    67    1
    52    68    99    1
    53    27    87    1
    54    14    64    1
    55    87    88    1
    56    87    91    1
    57    67    66    1
    58    67    44    1
    59   100    39    1
    60    50    88    1
    61    66    65    1
    62    66    98    1
    63    15    65    1
    64    12    62    1
    65    99    38    1
    66    88    28    1
    67    88    57    1
    68    91    59    1
    69    64    65    1
    70    64    97    1
    71    64    63    1
    72    65    43    1
    73    98    37    1
    74    13    63    1
    75    25    79    1
    76    97    36    1
    77    62    63    1
    78    62    96    1
    79    62    61    1
    80    63    42    1
    81    59    60    2
    82    59    61    1
    83    96    35    1
    84    31    92    1
    85    61    79    1
    86    61    11    1
    87    79    48    1
    88    79    90    1
    89    52    90    1
    90    33    94    1
    91    92    90    1
    92    92    53    1
    93    92    93    1
    94    90    30    1
    95    54    93    1
    96    94    93    1
    97    94    55    1
    98    94    95    1
    99    93    32    1
   100    56    95    1
   101    34    95    1
   102    95    41    1
