@<TRIPOS>MOLECULE
32.89905
 102 102 0 0 0
SMALL
GASTEIGER

@<TRIPOS>ATOM
      1 H           0.2970   46.7070   22.7890 H       1  UNL1        0.0614
      2 H           2.9740   45.6060   21.7640 H       1  UNL1        0.0573
      3 H           0.5690   48.3990   24.4830 H       1  UNL1        0.0618
      4 H           3.2100   46.9490   23.8610 H       1  UNL1        0.0617
      5 H           3.3480   48.4220   25.8810 H       1  UNL1        0.0618
      6 H           0.7950   50.1180   26.1520 H       1  UNL1        0.0618
      7 H           3.4070   49.9610   27.8340 H       1  UNL1        0.0618
      8 H           0.9160   51.7550   27.9000 H       1  UNL1        0.0618
      9 H           3.3540   51.3870   29.7800 H       1  UNL1        0.0618
     10 H           3.1710   54.5950   32.6230 H       1  UNL1        0.2102
     11 H           2.3490   41.5130   23.5550 H       1  UNL1        0.0439
     12 H          -0.3800   41.9510   24.8870 H       1  UNL1        0.0602
     13 H           1.0320   44.0210   24.7380 H       1  UNL1        0.0315
     14 H          -0.2540   43.6180   26.8930 H       1  UNL1        0.0595
     15 H           0.9940   45.7220   26.6910 H       1  UNL1        0.0315
     16 H           0.1490   45.1130   29.0520 H       1  UNL1        0.0595
     17 H           1.0610   47.3690   28.6630 H       1  UNL1        0.0315
     18 H           0.7180   46.6480   31.1170 H       1  UNL1        0.0595
     19 H           1.2530   48.9940   30.5930 H       1  UNL1        0.0315
     20 H           1.3910   48.2670   33.0840 H       1  UNL1        0.0595
     21 H           3.3320   50.4540   32.1700 H       1  UNL1        0.0315
     22 H           0.7660   50.8260   31.7110 H       1  UNL1        0.0595
     23 H           2.1350   52.6990   33.7310 H       1  UNL1        0.0318
     24 H           3.5030   52.6260   31.6840 H       1  UNL1        0.0641
     25 H          -0.2600   39.9910   23.0270 H       1  UNL1        0.0274
     26 H           1.0400   45.6270   19.8740 H       1  UNL1        0.0343
     27 H           0.6530   43.0880   19.9610 H       1  UNL1        0.0734
     28 H           3.5800   43.9690   20.1020 H       1  UNL1        0.0265
     29 H           0.3100   53.5010   28.9100 H       1  UNL1        0.0275
     30 H           2.5560   39.7140   21.8440 H       1  UNL1        0.0265
     31 H           0.0330   38.0240   21.4290 H       1  UNL1        0.0265
     32 H           2.8200   37.8450   20.1630 H       1  UNL1        0.0265
     33 H           0.3080   36.1290   19.7700 H       1  UNL1        0.0263
     34 H           1.7390   34.7990   18.2510 H       1  UNL1        0.0230
     35 H           1.9910   40.6620   25.7870 H       1  UNL1        0.2098
     36 H           0.9420   41.7050   27.4040 H       1  UNL1        0.2098
     37 H           1.7810   43.3920   29.1630 H       1  UNL1        0.2098
     38 H           2.5610   45.1610   30.9030 H       1  UNL1        0.2098
     39 H           3.3440   47.0270   32.5740 H       1  UNL1        0.2098
     40 H          -0.4260   51.2570   33.5910 H       1  UNL1        0.2098
     41 H           3.0790   35.9370   18.4730 H       1  UNL1        0.0230
     42 H           2.3930   43.1200   25.4290 H       1  UNL1        0.0315
     43 H           2.5100   44.9070   27.1140 H       1  UNL1        0.0315
     44 H           2.7180   46.7550   28.8000 H       1  UNL1        0.0315
     45 H           2.9780   48.6090   30.4830 H       1  UNL1        0.0315
     46 H           2.8790   50.1940   33.8390 H       1  UNL1        0.0315
     47 H           0.7060   53.1000   32.8500 H       1  UNL1        0.0318
     48 H           1.1320   39.3410   23.8910 H       1  UNL1        0.0274
     49 H           0.0020   45.0330   21.1580 H       1  UNL1        0.0343
     50 H           2.5380   44.0880   18.6630 H       1  UNL1        0.0265
     51 H           0.8160   54.6750   30.1000 H       1  UNL1        0.0275
     52 H           1.1150   40.2380   20.9680 H       1  UNL1        0.0265
     53 H           1.4950   37.4930   22.2650 H       1  UNL1        0.0265
     54 H           1.3560   38.3690   19.3300 H       1  UNL1        0.0265
     55 H           1.7820   35.6060   20.5890 H       1  UNL1        0.0263
     56 H           1.5960   36.4600   17.6510 H       1  UNL1        0.0230
     57 H           2.9520   42.5080   19.3600 H       1  UNL1        0.0265
     58 H          -0.1820   53.2920   30.5920 H       1  UNL1        0.0275
     59 C           0.7510   42.4550   22.4710 C.2     1  UNL1        0.3130
     60 O          -0.4170   42.7810   22.3210 O.2     1  UNL1       -0.2504
     61 C           1.2510   41.4800   23.5180 C.3     1  UNL1        0.0823
     62 C           0.7130   41.8750   24.9090 C.3     1  UNL1        0.0705
     63 C           1.2990   43.2080   25.4220 C.3     1  UNL1        0.0001
     64 C           0.8400   43.5700   26.8500 C.3     1  UNL1        0.0600
     65 C           1.4280   44.9220   27.3010 C.3     1  UNL1       -0.0006
     66 C           1.2110   45.2150   28.7980 C.3     1  UNL1        0.0599
     67 C           1.6910   46.6300   29.1700 C.3     1  UNL1       -0.0006
     68 C           1.6980   46.8900   30.6900 C.3     1  UNL1        0.0599
     69 C           2.0430   48.3580   31.0020 C.3     1  UNL1       -0.0006
     70 C           2.2460   48.6330   32.5060 C.3     1  UNL1        0.0599
     71 C           2.5080   50.1170   32.8080 C.3     1  UNL1       -0.0006
     72 C           1.2800   51.0190   32.6560 C.3     1  UNL1        0.0602
     73 C           1.6310   52.5120   32.7720 C.3     1  UNL1        0.0032
     74 C           2.4990   53.0620   31.6280 C.3     1  UNL1        0.0786
     75 C           1.8890   52.8130   30.2580 C.2     1  UNL1       -0.0445
     76 C           2.4390   51.8820   29.4520 C.2     1  UNL1       -0.0604
     77 C           1.8770   51.3670   28.2230 C.2     1  UNL1       -0.0617
     78 C           2.4500   50.3750   27.5240 C.2     1  UNL1       -0.0618
     79 C           0.8330   40.0500   23.1110 C.3     1  UNL1       -0.0377
     80 C           1.7970   49.7640   26.3890 C.2     1  UNL1       -0.0618
     81 C           2.3440   48.7780   25.6630 C.2     1  UNL1       -0.0618
     82 C           1.6170   48.1270   24.5970 C.2     1  UNL1       -0.0618
     83 C           2.1580   47.2150   23.7770 C.2     1  UNL1       -0.0621
     84 C           1.3740   46.5480   22.7650 C.2     1  UNL1       -0.0656
     85 C           1.8990   45.7540   21.8200 C.2     1  UNL1       -0.0805
     86 C           1.0400   45.0450   20.8040 C.3     1  UNL1        0.0026
     87 C           1.4660   43.5970   20.4950 C.3     1  UNL1        0.1037
     88 C           2.7030   43.5480   19.6000 C.3     1  UNL1       -0.0274
     89 C           0.6430   53.6060   29.9450 C.3     1  UNL1       -0.0411
     90 C           1.4660   39.6010   21.7870 C.3     1  UNL1       -0.0522
     91 O           1.7890   42.8450   21.6820 O.3     1  UNL1       -0.4611
     92 C           1.1220   38.1450   21.4650 C.3     1  UNL1       -0.0530
     93 C           1.7310   37.7180   20.1280 C.3     1  UNL1       -0.0533
     94 C           1.3960   36.2630   19.8010 C.3     1  UNL1       -0.0559
     95 C           1.9880   35.8430   18.4650 C.3     1  UNL1       -0.0653
     96 O           1.0350   40.8460   25.8590 O.3     1  UNL1       -0.3909
     97 O           1.2620   42.5590   27.7720 O.3     1  UNL1       -0.3916
     98 O           1.9370   44.2680   29.5880 O.3     1  UNL1       -0.3916
     99 O           2.6660   46.0480   31.3230 O.3     1  UNL1       -0.3916
    100 O           3.4100   47.9300   32.9580 O.3     1  UNL1       -0.3916
    101 O           0.3550   50.6870   33.6950 O.3     1  UNL1       -0.3916
    102 O           2.6680   54.4670   31.8010 O.3     1  UNL1       -0.3874
@<TRIPOS>BOND
     1    56    95    1
     2    34    95    1
     3    95    41    1
     4    95    94    1
     5    50    88    1
     6    54    93    1
     7    57    88    1
     8    88    28    1
     9    88    87    1
    10    33    94    1
    11    94    93    1
    12    94    55    1
    13    26    86    1
    14    27    87    1
    15    93    32    1
    16    93    92    1
    17    87    86    1
    18    87    91    1
    19    86    49    1
    20    86    85    1
    21    52    90    1
    22    31    92    1
    23    92    90    1
    24    92    53    1
    25    91    59    1
    26     2    85    1
    27    90    30    1
    28    90    79    1
    29    85    84    2
    30    60    59    2
    31    59    61    1
    32    84     1    1
    33    84    83    1
    34    25    79    1
    35    79    61    1
    36    79    48    1
    37    61    11    1
    38    61    62    1
    39    83     4    1
    40    83    82    2
    41     3    82    1
    42    82    81    1
    43    13    63    1
    44    12    62    1
    45    62    63    1
    46    62    96    1
    47    63    42    1
    48    63    64    1
    49    81     5    1
    50    81    80    2
    51    35    96    1
    52     6    80    1
    53    80    78    1
    54    15    65    1
    55    64    14    1
    56    64    65    1
    57    64    97    1
    58    43    65    1
    59    65    66    1
    60    36    97    1
    61    78     7    1
    62    78    77    2
    63     8    77    1
    64    77    76    1
    65    17    67    1
    66    66    16    1
    67    66    67    1
    68    66    98    1
    69    44    67    1
    70    29    89    1
    71    37    98    1
    72    67    68    1
    73    76     9    1
    74    76    75    2
    75    89    51    1
    76    89    75    1
    77    89    58    1
    78    75    74    1
    79    45    69    1
    80    19    69    1
    81    68    69    1
    82    68    18    1
    83    68    99    1
    84    38    99    1
    85    69    70    1
    86    74    24    1
    87    74   102    1
    88    74    73    1
    89    22    72    1
    90   102    10    1
    91    21    71    1
    92    70    71    1
    93    70   100    1
    94    70    20    1
    95    39   100    1
    96    72    73    1
    97    72    71    1
    98    72   101    1
    99    73    47    1
   100    73    23    1
   101    71    46    1
   102    40   101    1
