@<TRIPOS>MOLECULE
35.42890
 102 102 0 0 0
SMALL
GASTEIGER

@<TRIPOS>ATOM
      1 H          -0.7160   43.4480   20.0530 H       1  UNL1        0.0614
      2 H          -2.7240   43.5860   22.3760 H       1  UNL1        0.0573
      3 H          -1.1710   41.6690   18.4880 H       1  UNL1        0.0618
      4 H          -3.2400   41.7630   20.7630 H       1  UNL1        0.0617
      5 H          -3.6790   39.9460   19.1490 H       1  UNL1        0.0618
      6 H          -1.5370   39.8320   16.9410 H       1  UNL1        0.0618
      7 H          -4.0410   38.1010   17.5870 H       1  UNL1        0.0618
      8 H          -1.7660   37.8550   15.5380 H       1  UNL1        0.0618
      9 H          -4.3060   36.1980   16.1830 H       1  UNL1        0.0618
     10 H          -4.2850   32.9170   13.3760 H       1  UNL1        0.2102
     11 H           1.9040   41.8040   24.3910 H       1  UNL1        0.0439
     12 H           1.4680   40.9920   21.4590 H       1  UNL1        0.0602
     13 H          -0.5980   41.1830   22.8420 H       1  UNL1        0.0315
     14 H          -0.4930   39.1690   21.2870 H       1  UNL1        0.0595
     15 H          -2.5750   39.5370   22.5320 H       1  UNL1        0.0315
     16 H          -1.7320   36.6290   23.1110 H       1  UNL1        0.0595
     17 H          -1.7220   37.1040   20.6400 H       1  UNL1        0.0315
     18 H          -2.6770   34.8980   21.5450 H       1  UNL1        0.0595
     19 H          -2.4210   35.2880   19.0820 H       1  UNL1        0.0315
     20 H          -3.4980   33.1060   19.9050 H       1  UNL1        0.0595
     21 H          -4.7850   34.1930   17.3500 H       1  UNL1        0.0315
     22 H          -2.1860   34.1100   17.2580 H       1  UNL1        0.0595
     23 H          -3.6420   32.0220   15.5380 H       1  UNL1        0.0318
     24 H          -4.6770   34.2160   15.1080 H       1  UNL1        0.0641
     25 H           3.8590   42.3370   22.1050 H       1  UNL1        0.0274
     26 H          -1.6510   45.8970   22.2910 H       1  UNL1        0.0343
     27 H           0.4520   45.5680   23.7180 H       1  UNL1        0.0734
     28 H          -2.0250   44.0830   24.7270 H       1  UNL1        0.0265
     29 H          -0.9740   36.3200   14.3410 H       1  UNL1        0.0275
     30 H           3.9270   43.0130   25.0990 H       1  UNL1        0.0265
     31 H           5.9680   43.5120   22.8690 H       1  UNL1        0.0265
     32 H           5.9870   44.2930   25.8340 H       1  UNL1        0.0265
     33 H           8.0480   44.7480   23.6090 H       1  UNL1        0.0263
     34 H           9.4030   45.7930   25.3970 H       1  UNL1        0.0230
     35 H           2.5070   39.4660   23.6250 H       1  UNL1        0.2098
     36 H           1.2700   38.1980   22.3820 H       1  UNL1        0.2098
     37 H          -3.4510   37.3960   24.3370 H       1  UNL1        0.2098
     38 H          -4.5460   36.1590   22.4210 H       1  UNL1        0.2098
     39 H          -5.3840   34.4070   20.6640 H       1  UNL1        0.2098
     40 H          -1.3120   32.0200   17.3040 H       1  UNL1        0.2098
     41 H           8.0810   45.5820   26.5590 H       1  UNL1        0.0230
     42 H           0.1590   40.1970   24.1000 H       1  UNL1        0.0315
     43 H          -1.8630   38.9510   24.0100 H       1  UNL1        0.0315
     44 H          -3.3550   37.7880   20.7880 H       1  UNL1        0.0315
     45 H          -4.0480   35.9950   19.0410 H       1  UNL1        0.0315
     46 H          -4.7450   32.5140   17.8240 H       1  UNL1        0.0315
     47 H          -2.0570   32.6230   15.2170 H       1  UNL1        0.0318
     48 H           4.1170   41.1820   23.4100 H       1  UNL1        0.0274
     49 H          -0.2650   45.2380   21.4680 H       1  UNL1        0.0343
     50 H          -1.8100   45.8510   24.7510 H       1  UNL1        0.0265
     51 H          -1.7070   35.3130   13.1040 H       1  UNL1        0.0275
     52 H           3.7340   44.1910   23.8020 H       1  UNL1        0.0265
     53 H           6.1700   42.3850   24.2130 H       1  UNL1        0.0265
     54 H           5.7880   45.4150   24.4870 H       1  UNL1        0.0265
     55 H           8.2460   43.6480   24.9750 H       1  UNL1        0.0263
     56 H           7.8870   46.6850   25.1820 H       1  UNL1        0.0230
     57 H          -0.7500   44.7910   25.7030 H       1  UNL1        0.0265
     58 H          -0.8970   34.5740   14.5010 H       1  UNL1        0.0275
     59 C           1.3890   43.2400   22.8850 C.2     1  UNL1        0.3130
     60 O           1.7500   43.9470   21.9560 O.2     1  UNL1       -0.2504
     61 C           2.0840   41.9580   23.3180 C.3     1  UNL1        0.0823
     62 C           1.5110   40.7580   22.5290 C.3     1  UNL1        0.0705
     63 C           0.1020   40.3600   23.0150 C.3     1  UNL1        0.0001
     64 C          -0.4620   39.0730   22.3770 C.3     1  UNL1        0.0600
     65 C          -1.8690   38.7940   22.9230 C.3     1  UNL1       -0.0006
     66 C          -2.4080   37.3770   22.6810 C.3     1  UNL1        0.0599
     67 C          -2.6620   37.0440   21.2000 C.3     1  UNL1       -0.0006
     68 C          -3.2870   35.6440   21.0230 C.3     1  UNL1        0.0599
     69 C          -3.4140   35.2530   19.5400 C.3     1  UNL1       -0.0006
     70 C          -4.0540   33.8620   19.3400 C.3     1  UNL1        0.0599
     71 C          -4.1690   33.4490   17.8650 C.3     1  UNL1       -0.0006
     72 C          -2.8360   33.2400   17.1420 C.3     1  UNL1        0.0602
     73 C          -3.0220   32.9230   15.6480 C.3     1  UNL1        0.0032
     74 C          -3.6340   34.0610   14.8110 C.3     1  UNL1        0.0786
     75 C          -2.8550   35.3630   14.9200 C.2     1  UNL1       -0.0445
     76 C          -3.3400   36.3510   15.7000 C.2     1  UNL1       -0.0604
     77 C          -2.6830   37.5880   16.0540 C.2     1  UNL1       -0.0617
     78 C          -3.1340   38.3690   17.0470 C.2     1  UNL1       -0.0618
     79 C           3.6130   42.1200   23.1520 C.3     1  UNL1       -0.0377
     80 C          -2.4250   39.5440   17.4990 C.2     1  UNL1       -0.0618
     81 C          -2.7970   40.2400   18.5830 C.2     1  UNL1       -0.0618
     82 C          -2.0450   41.3740   19.0660 C.2     1  UNL1       -0.0618
     83 C          -2.3680   42.0490   20.1790 C.2     1  UNL1       -0.0621
     84 C          -1.5830   43.1640   20.6490 C.2     1  UNL1       -0.0656
     85 C          -1.8610   43.8470   21.7690 C.2     1  UNL1       -0.0805
     86 C          -1.0160   45.0050   22.2320 C.3     1  UNL1        0.0026
     87 C          -0.3080   44.7880   23.5840 C.3     1  UNL1        0.1037
     88 C          -1.2860   44.8910   24.7520 C.3     1  UNL1       -0.0274
     89 C          -1.5400   35.4000   14.1820 C.3     1  UNL1       -0.0411
     90 C           4.1850   43.2250   24.0540 C.3     1  UNL1       -0.0522
     91 O           0.3420   43.5020   23.7110 O.3     1  UNL1       -0.4611
     92 C           5.7050   43.3330   23.9180 C.3     1  UNL1       -0.0530
     93 C           6.2550   44.4680   24.7850 C.3     1  UNL1       -0.0533
     94 C           7.7730   44.5840   24.6580 C.3     1  UNL1       -0.0559
     95 C           8.3150   45.7290   25.4990 C.3     1  UNL1       -0.0653
     96 O           2.3730   39.6190   22.6700 O.3     1  UNL1       -0.3909
     97 O           0.3720   37.9640   22.7020 O.3     1  UNL1       -0.3916
     98 O          -3.6530   37.2610   23.3920 O.3     1  UNL1       -0.3916
     99 O          -4.5970   35.6130   21.6040 O.3     1  UNL1       -0.3916
    100 O          -5.3980   33.8720   19.8390 O.3     1  UNL1       -0.3916
    101 O          -2.1620   32.1410   17.7610 O.3     1  UNL1       -0.3916
    102 O          -3.6680   33.6660   13.4420 O.3     1  UNL1       -0.3874
@<TRIPOS>BOND
     1    51    89    1
     2    10   102    1
     3   102    74    1
     4    89    29    1
     5    89    58    1
     6    89    75    1
     7    74    75    1
     8    74    24    1
     9    74    73    1
    10    75    76    2
    11    47    73    1
    12     8    77    1
    13    23    73    1
    14    73    72    1
    15    76    77    1
    16    76     9    1
    17    77    78    2
    18     6    80    1
    19    78    80    1
    20    78     7    1
    21    72    22    1
    22    72   101    1
    23    72    71    1
    24    40   101    1
    25    21    71    1
    26    80    81    2
    27    46    71    1
    28    71    70    1
    29     3    82    1
    30    81    82    1
    31    81     5    1
    32    45    69    1
    33    82    83    2
    34    19    69    1
    35    70    69    1
    36    70   100    1
    37    70    20    1
    38    69    68    1
    39   100    39    1
    40     1    84    1
    41    83    84    1
    42    83     4    1
    43    17    67    1
    44    84    85    2
    45    44    67    1
    46    68    67    1
    47    68    18    1
    48    68    99    1
    49    67    66    1
    50    14    64    1
    51    12    62    1
    52    49    86    1
    53    99    38    1
    54    85    86    1
    55    85     2    1
    56    60    59    2
    57    25    79    1
    58    86    26    1
    59    86    87    1
    60    64    97    1
    61    64    65    1
    62    64    63    1
    63    36    97    1
    64    62    96    1
    65    62    63    1
    66    62    61    1
    67    15    65    1
    68    96    35    1
    69    66    65    1
    70    66    16    1
    71    66    98    1
    72    13    63    1
    73    31    92    1
    74    59    61    1
    75    59    91    1
    76    65    43    1
    77    63    42    1
    78    79    61    1
    79    79    48    1
    80    79    90    1
    81    61    11    1
    82    98    37    1
    83    87    91    1
    84    87    27    1
    85    87    88    1
    86    33    94    1
    87    52    90    1
    88    92    90    1
    89    92    53    1
    90    92    93    1
    91    90    30    1
    92    54    93    1
    93    94    93    1
    94    94    55    1
    95    94    95    1
    96    28    88    1
    97    50    88    1
    98    88    57    1
    99    93    32    1
   100    56    95    1
   101    34    95    1
   102    95    41    1
