@<TRIPOS>MOLECULE
48.97890
 102 102 0 0 0
SMALL
GASTEIGER

@<TRIPOS>ATOM
      1 H           1.4730   47.4090   20.8350 H       1  UNL1        0.0614
      2 H           2.4430   44.9620   22.4090 H       1  UNL1        0.0573
      3 H           3.4160   47.9800   19.1800 H       1  UNL1        0.0618
      4 H           3.5230   45.1380   20.3470 H       1  UNL1        0.0617
      5 H           4.8900   45.3560   18.4220 H       1  UNL1        0.0618
      6 H           5.6370   48.2920   17.9000 H       1  UNL1        0.0618
      7 H           6.6540   45.5640   16.8080 H       1  UNL1        0.0618
      8 H           8.0260   48.2990   17.0720 H       1  UNL1        0.0618
      9 H           8.6960   45.7240   15.5150 H       1  UNL1        0.0618
     10 H          12.8840   46.3380   14.3750 H       1  UNL1        0.2102
     11 H           1.4080   40.8090   23.6920 H       1  UNL1        0.0439
     12 H           3.7300   42.5950   22.8190 H       1  UNL1        0.0602
     13 H           2.5740   41.0620   21.0990 H       1  UNL1        0.0315
     14 H           5.0200   41.7330   20.8820 H       1  UNL1        0.0595
     15 H           3.9030   40.3580   19.1130 H       1  UNL1        0.0315
     16 H           6.6950   39.2210   19.7520 H       1  UNL1        0.0595
     17 H           6.8060   41.6790   19.3160 H       1  UNL1        0.0315
     18 H           8.5370   40.1250   18.2270 H       1  UNL1        0.0595
     19 H           8.7800   42.6130   18.0730 H       1  UNL1        0.0315
     20 H          10.4300   41.0890   16.8310 H       1  UNL1        0.0595
     21 H           9.8120   43.6130   15.2160 H       1  UNL1        0.0315
     22 H          10.2370   44.3610   17.5560 H       1  UNL1        0.0595
     23 H          12.8190   44.5230   15.8930 H       1  UNL1        0.0318
     24 H          10.8620   45.5290   14.6390 H       1  UNL1        0.0641
     25 H           2.4670   41.2710   25.7950 H       1  UNL1        0.0274
     26 H           0.0380   46.8580   22.8220 H       1  UNL1        0.0343
     27 H          -1.0540   44.9930   23.9770 H       1  UNL1        0.0734
     28 H          -0.5210   44.4100   21.0390 H       1  UNL1        0.0265
     29 H          10.1090   48.4940   17.6900 H       1  UNL1        0.0275
     30 H           2.4830   44.2370   25.0080 H       1  UNL1        0.0265
     31 H           3.2250   42.8630   27.6390 H       1  UNL1        0.0265
     32 H           3.1950   45.8150   26.8090 H       1  UNL1        0.0265
     33 H           3.9990   44.4710   29.4460 H       1  UNL1        0.0263
     34 H           4.3090   46.7870   30.2550 H       1  UNL1        0.0230
     35 H           3.9140   40.1590   24.2830 H       1  UNL1        0.2098
     36 H           5.6190   40.5500   22.8120 H       1  UNL1        0.2098
     37 H           5.4180   37.9390   18.4060 H       1  UNL1        0.2098
     38 H           6.7980   39.3110   16.7770 H       1  UNL1        0.2098
     39 H           8.6480   40.4590   15.3470 H       1  UNL1        0.2098
     40 H          12.1500   43.6610   18.5740 H       1  UNL1        0.2098
     41 H           3.9210   47.4300   28.6510 H       1  UNL1        0.0230
     42 H           3.0790   39.6980   22.1040 H       1  UNL1        0.0315
     43 H           4.2140   38.9040   20.0320 H       1  UNL1        0.0315
     44 H           5.8090   41.4650   17.8630 H       1  UNL1        0.0315
     45 H           7.7800   42.6120   16.6060 H       1  UNL1        0.0315
     46 H          11.3010   42.7060   15.2090 H       1  UNL1        0.0315
     47 H          12.4770   45.5140   17.2620 H       1  UNL1        0.0318
     48 H           1.0230   42.2410   25.6620 H       1  UNL1        0.0274
     49 H           1.0370   46.1650   24.1000 H       1  UNL1        0.0343
     50 H          -1.8460   45.3120   21.7620 H       1  UNL1        0.0265
     51 H          11.2350   48.8250   16.3720 H       1  UNL1        0.0275
     52 H           3.9030   43.2370   25.2710 H       1  UNL1        0.0265
     53 H           1.7740   43.8380   27.3840 H       1  UNL1        0.0265
     54 H           4.6500   44.8470   27.0570 H       1  UNL1        0.0265
     55 H           2.5330   45.4240   29.2010 H       1  UNL1        0.0263
     56 H           5.3960   46.4740   28.8910 H       1  UNL1        0.0230
     57 H          -1.7110   43.5590   22.0280 H       1  UNL1        0.0265
     58 H          11.6640   47.6900   17.6680 H       1  UNL1        0.0275
     59 C           1.1050   42.7640   22.9430 C.2     1  UNL1        0.3130
     60 O           1.1230   42.8050   21.7200 O.2     1  UNL1       -0.2504
     61 C           1.9430   41.7660   23.7480 C.3     1  UNL1        0.0823
     62 C           3.3360   41.6050   23.0790 C.3     1  UNL1        0.0705
     63 C           3.3320   40.7250   21.8100 C.3     1  UNL1        0.0001
     64 C           4.7020   40.7080   21.0990 C.3     1  UNL1        0.0600
     65 C           4.6230   39.8980   19.8020 C.3     1  UNL1       -0.0006
     66 C           5.9640   39.6910   19.0830 C.3     1  UNL1        0.0599
     67 C           6.5630   40.9870   18.5020 C.3     1  UNL1       -0.0006
     68 C           7.8210   40.7220   17.6510 C.3     1  UNL1        0.0599
     69 C           8.5020   42.0280   17.1910 C.3     1  UNL1       -0.0006
     70 C           9.7390   41.7610   16.3100 C.3     1  UNL1        0.0599
     71 C          10.4780   43.0290   15.8620 C.3     1  UNL1       -0.0006
     72 C          11.0480   43.9110   16.9760 C.3     1  UNL1        0.0602
     73 C          11.9840   45.0010   16.4250 C.3     1  UNL1        0.0032
     74 C          11.3210   46.0320   15.4970 C.3     1  UNL1        0.0786
     75 C          10.2940   46.9000   16.2050 C.2     1  UNL1       -0.0445
     76 C           8.9860   46.5910   16.1090 C.2     1  UNL1       -0.0604
     77 C           7.8910   47.2650   16.7690 C.2     1  UNL1       -0.0617
     78 C           6.7580   46.6160   17.0710 C.2     1  UNL1       -0.0618
     79 C           2.0350   42.1230   25.2540 C.3     1  UNL1       -0.0377
     80 C           5.6760   47.2080   17.8230 C.2     1  UNL1       -0.0618
     81 C           4.7910   46.4400   18.4720 C.2     1  UNL1       -0.0618
     82 C           3.7240   46.9460   19.3040 C.2     1  UNL1       -0.0618
     83 C           3.1560   46.1580   20.2260 C.2     1  UNL1       -0.0621
     84 C           2.0700   46.5390   21.0960 C.2     1  UNL1       -0.0656
     85 C           1.7810   45.7900   22.1700 C.2     1  UNL1       -0.0805
     86 C           0.6200   45.9720   23.1030 C.3     1  UNL1        0.0026
     87 C          -0.3230   44.7490   23.1960 C.3     1  UNL1        0.1037
     88 C          -1.1430   44.4900   21.9350 C.3     1  UNL1       -0.0274
     89 C          10.8480   48.0380   17.0270 C.3     1  UNL1       -0.0411
     90 C           2.8600   43.3790   25.5720 C.3     1  UNL1       -0.0522
     91 O           0.3620   43.5820   23.7310 O.3     1  UNL1       -0.4611
     92 C           2.8150   43.7050   27.0670 C.3     1  UNL1       -0.0530
     93 C           3.6090   44.9750   27.3800 C.3     1  UNL1       -0.0533
     94 C           3.5720   45.3020   28.8720 C.3     1  UNL1       -0.0559
     95 C           4.3460   46.5730   29.1830 C.3     1  UNL1       -0.0653
     96 O           4.2760   41.0180   23.9940 O.3     1  UNL1       -0.3909
     97 O           5.6850   40.1080   21.9380 O.3     1  UNL1       -0.3916
     98 O           5.7390   38.7680   18.0050 O.3     1  UNL1       -0.3916
     99 O           7.4700   39.9690   16.4840 O.3     1  UNL1       -0.3916
    100 O           9.3450   41.1070   15.0960 O.3     1  UNL1       -0.3916
    101 O          11.7960   43.0870   17.8730 O.3     1  UNL1       -0.3916
    102 O          12.3300   46.8850   14.9580 O.3     1  UNL1       -0.3874
@<TRIPOS>BOND
     1    10   102    1
     2    24    74    1
     3   102    74    1
     4   100    39    1
     5   100    70    1
     6    46    71    1
     7    21    71    1
     8    74    75    1
     9    74    73    1
    10     9    76    1
    11    71    70    1
    12    71    72    1
    13    23    73    1
    14    76    75    2
    15    76    77    1
    16    75    89    1
    17    70    20    1
    18    70    69    1
    19    51    89    1
    20    73    72    1
    21    73    47    1
    22    99    38    1
    23    99    68    1
    24    45    69    1
    25    77    78    2
    26    77     8    1
    27     7    78    1
    28    72    22    1
    29    72   101    1
    30    89    58    1
    31    89    29    1
    32    78    80    1
    33    69    68    1
    34    69    19    1
    35    68    18    1
    36    68    67    1
    37    80     6    1
    38    80    81    2
    39    44    67    1
    40   101    40    1
    41    98    37    1
    42    98    66    1
    43     5    81    1
    44    81    82    1
    45    67    66    1
    46    67    17    1
    47    66    16    1
    48    66    65    1
    49    15    65    1
    50     3    82    1
    51    82    83    2
    52    65    43    1
    53    65    64    1
    54    83     4    1
    55    83    84    1
    56     1    84    1
    57    14    64    1
    58    28    88    1
    59    84    85    2
    60    64    63    1
    61    64    97    1
    62    13    63    1
    63    60    59    2
    64    50    88    1
    65    63    42    1
    66    63    62    1
    67    88    57    1
    68    88    87    1
    69    97    36    1
    70    85     2    1
    71    85    86    1
    72    12    62    1
    73    26    86    1
    74    59    91    1
    75    59    61    1
    76    62    61    1
    77    62    96    1
    78    86    87    1
    79    86    49    1
    80    87    91    1
    81    87    27    1
    82    11    61    1
    83    61    79    1
    84    96    35    1
    85    30    90    1
    86    79    90    1
    87    79    48    1
    88    79    25    1
    89    52    90    1
    90    90    92    1
    91    32    93    1
    92    54    93    1
    93    92    93    1
    94    92    53    1
    95    92    31    1
    96    93    94    1
    97    41    95    1
    98    94    95    1
    99    94    55    1
   100    94    33    1
   101    56    95    1
   102    95    34    1
