@<TRIPOS>MOLECULE
46.50077
 102 102 0 0 0
SMALL
GASTEIGER

@<TRIPOS>ATOM
      1 H           1.6770   47.0270   21.2150 H       1  UNL1        0.0614
      2 H           0.9250   44.5700   22.9000 H       1  UNL1        0.0573
      3 H           2.6170   48.8170   22.8910 H       1  UNL1        0.0618
      4 H           2.2400   46.0170   24.0980 H       1  UNL1        0.0617
      5 H           3.4580   47.3670   25.5090 H       1  UNL1        0.0618
      6 H           3.2070   50.3700   24.9050 H       1  UNL1        0.0618
      7 H           4.2910   48.6410   27.2570 H       1  UNL1        0.0618
      8 H           3.4140   51.5790   27.1440 H       1  UNL1        0.0618
      9 H           4.6520   49.6900   29.2750 H       1  UNL1        0.0618
     10 H           4.8160   51.9600   32.9620 H       1  UNL1        0.2102
     11 H           2.7150   41.2270   23.1460 H       1  UNL1        0.0439
     12 H           0.0900   41.7030   24.5860 H       1  UNL1        0.0602
     13 H           1.9920   43.4040   24.5670 H       1  UNL1        0.0315
     14 H           0.4140   43.3810   26.5280 H       1  UNL1        0.0595
     15 H           2.3230   44.9930   26.5910 H       1  UNL1        0.0315
     16 H           0.8730   44.8420   28.6800 H       1  UNL1        0.0595
     17 H           2.7120   46.5360   28.6310 H       1  UNL1        0.0315
     18 H           1.4390   46.2420   30.8210 H       1  UNL1        0.0595
     19 H           3.1790   48.0270   30.6750 H       1  UNL1        0.0315
     20 H           2.0620   47.5430   32.9630 H       1  UNL1        0.0595
     21 H           4.8810   48.7060   32.7920 H       1  UNL1        0.0315
     22 H           2.2260   49.7360   33.9470 H       1  UNL1        0.0595
     23 H           2.2260   51.4610   32.2980 H       1  UNL1        0.0318
     24 H           4.9240   50.3670   31.3820 H       1  UNL1        0.0641
     25 H           0.3840   39.2560   22.8650 H       1  UNL1        0.0274
     26 H           0.3160   45.2490   19.9600 H       1  UNL1        0.0343
     27 H           0.6110   42.6580   19.6840 H       1  UNL1        0.0734
     28 H           3.1490   44.3300   20.0570 H       1  UNL1        0.0265
     29 H           2.8310   52.9750   28.6680 H       1  UNL1        0.0275
     30 H           3.1140   39.4520   21.4800 H       1  UNL1        0.0265
     31 H           0.9200   37.3250   21.2570 H       1  UNL1        0.0265
     32 H           3.6390   37.6020   19.8670 H       1  UNL1        0.0265
     33 H           1.4710   35.4460   19.6350 H       1  UNL1        0.0263
     34 H           3.0740   34.3370   18.1110 H       1  UNL1        0.0230
     35 H           2.1200   39.9640   25.5580 H       1  UNL1        0.2098
     36 H           0.9860   41.1530   27.0680 H       1  UNL1        0.2098
     37 H           1.7290   42.6000   29.0340 H       1  UNL1        0.2098
     38 H           2.4340   44.0430   31.0310 H       1  UNL1        0.2098
     39 H           3.2550   45.4670   33.0240 H       1  UNL1        0.2098
     40 H           3.3010   51.3960   34.6910 H       1  UNL1        0.2098
     41 H           4.1920   35.7040   18.2460 H       1  UNL1        0.0230
     42 H           2.9970   42.1950   25.3800 H       1  UNL1        0.0315
     43 H           3.3620   43.7340   27.2830 H       1  UNL1        0.0315
     44 H           3.8570   45.3040   29.1940 H       1  UNL1        0.0315
     45 H           4.4240   46.8550   31.1340 H       1  UNL1        0.0315
     46 H           4.2570   48.3420   34.3590 H       1  UNL1        0.0315
     47 H           2.3040   49.9230   31.4410 H       1  UNL1        0.0318
     48 H           1.9340   38.8910   23.6270 H       1  UNL1        0.0274
     49 H          -0.5880   44.2080   21.0360 H       1  UNL1        0.0343
     50 H           2.1350   44.3140   18.5940 H       1  UNL1        0.0265
     51 H           3.7580   53.6380   30.0070 H       1  UNL1        0.0275
     52 H           1.5470   39.6800   20.7000 H       1  UNL1        0.0265
     53 H           2.4870   37.0910   22.0370 H       1  UNL1        0.0265
     54 H           2.0710   37.8190   19.0880 H       1  UNL1        0.0265
     55 H           3.0390   35.2300   20.4170 H       1  UNL1        0.0263
     56 H           2.6160   35.9200   17.4600 H       1  UNL1        0.0230
     57 H           2.9990   42.8540   19.1200 H       1  UNL1        0.0265
     58 H           2.1970   52.8440   30.3010 H       1  UNL1        0.0275
     59 C           0.8970   41.8320   22.1740 C.2     1  UNL1        0.3130
     60 O          -0.3180   41.8570   22.0440 O.2     1  UNL1       -0.2504
     61 C           1.6420   41.0040   23.2100 C.3     1  UNL1        0.0823
     62 C           1.1420   41.3970   24.6240 C.3     1  UNL1        0.0705
     63 C           1.9660   42.5490   25.2480 C.3     1  UNL1        0.0001
     64 C           1.4400   43.0070   26.6280 C.3     1  UNL1        0.0600
     65 C           2.3310   44.1120   27.2420 C.3     1  UNL1       -0.0006
     66 C           1.9180   44.5130   28.6760 C.3     1  UNL1        0.0599
     67 C           2.8120   45.6370   29.2490 C.3     1  UNL1       -0.0006
     68 C           2.4970   45.9720   30.7250 C.3     1  UNL1        0.0599
     69 C           3.3690   47.1290   31.2670 C.3     1  UNL1       -0.0006
     70 C           3.1320   47.4030   32.7710 C.3     1  UNL1        0.0599
     71 C           3.9370   48.5880   33.3350 C.3     1  UNL1       -0.0006
     72 C           3.1710   49.9160   33.4190 C.3     1  UNL1        0.0602
     73 C           2.8760   50.6010   32.0820 C.3     1  UNL1        0.0032
     74 C           4.1350   51.1250   31.3660 C.3     1  UNL1        0.0786
     75 C           3.8270   51.4940   29.9260 C.2     1  UNL1       -0.0445
     76 C           4.1450   50.6060   28.9660 C.2     1  UNL1       -0.0604
     77 C           3.8200   50.6640   27.5600 C.2     1  UNL1       -0.0617
     78 C           3.9180   49.5610   26.8070 C.2     1  UNL1       -0.0618
     79 C           1.4510   39.5120   22.8630 C.3     1  UNL1       -0.0377
     80 C           3.4540   49.4600   25.4440 C.2     1  UNL1       -0.0618
     81 C           3.2420   48.2510   24.9090 C.2     1  UNL1       -0.0618
     82 C           2.6710   48.0020   23.6070 C.2     1  UNL1       -0.0618
     83 C           2.1920   46.7840   23.3270 C.2     1  UNL1       -0.0621
     84 C           1.6000   46.3730   22.0790 C.2     1  UNL1       -0.0656
     85 C           1.0100   45.1730   22.0000 C.2     1  UNL1       -0.0805
     86 C           0.4280   44.5280   20.7790 C.3     1  UNL1        0.0026
     87 C           1.2440   43.3030   20.3070 C.3     1  UNL1        0.1037
     88 C           2.4460   43.7330   19.4680 C.3     1  UNL1       -0.0274
     89 C           3.1160   52.8030   29.7090 C.3     1  UNL1       -0.0411
     90 C           2.0620   39.1420   21.5040 C.3     1  UNL1       -0.0522
     91 O           1.7790   42.5160   21.3990 O.3     1  UNL1       -0.4611
     92 C           1.9710   37.6380   21.2380 C.3     1  UNL1       -0.0530
     93 C           2.5910   37.2780   19.8870 C.3     1  UNL1       -0.0533
     94 C           2.5170   35.7750   19.6220 C.3     1  UNL1       -0.0559
     95 C           3.1360   35.4160   18.2810 C.3     1  UNL1       -0.0653
     96 O           1.1970   40.2820   25.5250 O.3     1  UNL1       -0.3909
     97 O           1.4090   41.9060   27.5400 O.3     1  UNL1       -0.3916
     98 O           2.0180   43.3870   29.5540 O.3     1  UNL1       -0.3916
     99 O           2.7240   44.8280   31.5540 O.3     1  UNL1       -0.3916
    100 O           3.5450   46.2600   33.5290 O.3     1  UNL1       -0.3916
    101 O           3.9380   50.8220   34.2250 O.3     1  UNL1       -0.3916
    102 O           4.6560   52.2620   32.0430 O.3     1  UNL1       -0.3874
@<TRIPOS>BOND
     1    56    95    1
     2    34    95    1
     3    41    95    1
     4    95    94    1
     5    50    88    1
     6    54    93    1
     7    57    88    1
     8    88    28    1
     9    88    87    1
    10    94    33    1
    11    94    93    1
    12    94    55    1
    13    27    87    1
    14    32    93    1
    15    93    92    1
    16    26    86    1
    17    87    86    1
    18    87    91    1
    19    52    90    1
    20    86    49    1
    21    86    85    1
    22     1    84    1
    23    92    31    1
    24    92    90    1
    25    92    53    1
    26    91    59    1
    27    30    90    1
    28    90    79    1
    29    85    84    2
    30    85     2    1
    31    60    59    2
    32    84    83    1
    33    59    61    1
    34    79    25    1
    35    79    61    1
    36    79    48    1
    37     3    82    1
    38    11    61    1
    39    61    62    1
    40    83    82    2
    41    83     4    1
    42    82    81    1
    43    13    63    1
    44    12    62    1
    45    62    63    1
    46    62    96    1
    47     6    80    1
    48    81    80    2
    49    81     5    1
    50    63    42    1
    51    63    64    1
    52    80    78    1
    53    96    35    1
    54    14    64    1
    55    15    65    1
    56    64    65    1
    57    64    97    1
    58    78     7    1
    59    78    77    2
    60    36    97    1
    61     8    77    1
    62    65    43    1
    63    65    66    1
    64    77    76    1
    65    17    67    1
    66    29    89    1
    67    66    16    1
    68    66    67    1
    69    66    98    1
    70    76     9    1
    71    76    75    2
    72    37    98    1
    73    44    67    1
    74    67    68    1
    75    89    75    1
    76    89    51    1
    77    89    58    1
    78    75    74    1
    79    19    69    1
    80    68    18    1
    81    68    69    1
    82    68    99    1
    83    38    99    1
    84    45    69    1
    85    69    70    1
    86    74    24    1
    87    74   102    1
    88    74    73    1
    89    47    73    1
    90   102    10    1
    91    73    23    1
    92    73    72    1
    93    70    20    1
    94    70    71    1
    95    70   100    1
    96    21    71    1
    97    39   100    1
    98    71    72    1
    99    71    46    1
   100    72    22    1
   101    72   101    1
   102   101    40    1
