@<TRIPOS>MOLECULE
38.88285
 102 102 0 0 0
SMALL
GASTEIGER

@<TRIPOS>ATOM
      1 H           3.0610   46.2120   26.0830 H       1  UNL1        0.0614
      2 H           3.9940   43.4550   25.0960 H       1  UNL1        0.0573
      3 H           3.3900   46.4460   28.5240 H       1  UNL1        0.0618
      4 H           4.2970   43.7050   27.4680 H       1  UNL1        0.0617
      5 H           4.4270   43.8460   29.8940 H       1  UNL1        0.0618
      6 H           3.5920   46.6080   30.9550 H       1  UNL1        0.0618
      7 H           4.4100   43.9410   32.3410 H       1  UNL1        0.0618
      8 H           3.5950   46.7150   33.3680 H       1  UNL1        0.0618
      9 H           4.2010   43.9930   34.7300 H       1  UNL1        0.0618
     10 H           4.2670   44.7890   38.9600 H       1  UNL1        0.2102
     11 H           3.2430   40.3580   24.2750 H       1  UNL1        0.0439
     12 H           0.2780   40.9550   24.6370 H       1  UNL1        0.0602
     13 H           2.0320   42.0660   26.1290 H       1  UNL1        0.0315
     14 H          -0.1930   41.5430   27.1750 H       1  UNL1        0.0595
     15 H           1.5530   42.5760   28.5910 H       1  UNL1        0.0315
     16 H          -0.4880   41.7520   29.8780 H       1  UNL1        0.0595
     17 H           1.2550   42.9710   31.1280 H       1  UNL1        0.0315
     18 H          -0.4740   41.7750   32.5930 H       1  UNL1        0.0595
     19 H           1.1780   43.2430   33.6750 H       1  UNL1        0.0315
     20 H          -0.1760   41.7110   35.2620 H       1  UNL1        0.0595
     21 H           2.7220   42.2870   36.0820 H       1  UNL1        0.0315
     22 H           1.2080   44.3660   35.6030 H       1  UNL1        0.0595
     23 H           2.0820   43.8770   38.5130 H       1  UNL1        0.0318
     24 H           4.0530   43.8070   37.0010 H       1  UNL1        0.0641
     25 H           2.2560   38.4930   23.1160 H       1  UNL1        0.0274
     26 H           3.7820   44.5340   22.9310 H       1  UNL1        0.0343
     27 H           0.9380   44.7330   24.0490 H       1  UNL1        0.0734
     28 H           1.8770   44.0570   21.2200 H       1  UNL1        0.0265
     29 H           3.3830   47.6820   35.2100 H       1  UNL1        0.0275
     30 H           0.6780   40.5240   21.4430 H       1  UNL1        0.0265
     31 H           0.9140   37.4710   21.3100 H       1  UNL1        0.0265
     32 H          -0.6290   39.4390   19.5390 H       1  UNL1        0.0265
     33 H          -0.3720   36.3820   19.4450 H       1  UNL1        0.0263
     34 H          -1.7300   36.5590   17.3890 H       1  UNL1        0.0230
     35 H           1.6600   38.5720   25.3400 H       1  UNL1        0.2098
     36 H           0.0670   39.2300   26.7710 H       1  UNL1        0.2098
     37 H           0.1360   39.4900   29.3260 H       1  UNL1        0.2098
     38 H           0.4200   39.6760   31.8730 H       1  UNL1        0.2098
     39 H           0.9910   39.8340   34.3980 H       1  UNL1        0.2098
     40 H          -0.4210   44.6850   37.1560 H       1  UNL1        0.2098
     41 H          -1.8960   38.3090   17.6130 H       1  UNL1        0.0230
     42 H           2.6020   40.4490   26.5600 H       1  UNL1        0.0315
     43 H           2.2970   40.9940   28.8630 H       1  UNL1        0.0315
     44 H           2.2490   41.5090   31.2210 H       1  UNL1        0.0315
     45 H           2.4010   41.9650   33.6220 H       1  UNL1        0.0315
     46 H           1.4820   41.7610   37.1970 H       1  UNL1        0.0315
     47 H           1.6000   45.4180   37.9070 H       1  UNL1        0.0318
     48 H           2.9510   39.6190   21.9740 H       1  UNL1        0.0274
     49 H           2.9800   45.9410   23.5960 H       1  UNL1        0.0343
     50 H           1.1140   45.5640   21.7540 H       1  UNL1        0.0265
     51 H           3.8560   47.5280   36.8850 H       1  UNL1        0.0275
     52 H          -0.0430   39.3940   22.5910 H       1  UNL1        0.0265
     53 H           1.6430   38.5940   20.1610 H       1  UNL1        0.0265
     54 H          -1.3620   38.3200   20.6920 H       1  UNL1        0.0265
     55 H           0.3690   37.4970   18.2950 H       1  UNL1        0.0263
     56 H          -2.6430   37.1890   18.7710 H       1  UNL1        0.0230
     57 H           0.2120   44.0310   21.7860 H       1  UNL1        0.0265
     58 H           2.1880   47.1640   36.3950 H       1  UNL1        0.0275
     59 C           2.3980   41.9320   23.1780 C.2     1  UNL1        0.3130
     60 O           3.2200   42.1910   22.3080 O.2     1  UNL1       -0.2504
     61 C           2.2660   40.5470   23.8060 C.3     1  UNL1        0.0823
     62 C           1.2020   40.4430   24.9270 C.3     1  UNL1        0.0705
     63 C           1.7160   41.0270   26.2630 C.3     1  UNL1        0.0001
     64 C           0.7010   40.9610   27.4220 C.3     1  UNL1        0.0600
     65 C           1.3380   41.5080   28.7170 C.3     1  UNL1       -0.0006
     66 C           0.4980   41.2880   29.9900 C.3     1  UNL1        0.0599
     67 C           1.2150   41.8790   31.2220 C.3     1  UNL1       -0.0006
     68 C           0.5830   41.4860   32.5720 C.3     1  UNL1        0.0599
     69 C           1.3270   42.1600   33.7430 C.3     1  UNL1       -0.0006
     70 C           0.9090   41.6360   35.1330 C.3     1  UNL1        0.0599
     71 C           1.6460   42.3440   36.2800 C.3     1  UNL1       -0.0006
     72 C           1.2070   43.7890   36.5310 C.3     1  UNL1        0.0602
     73 C           2.0770   44.4800   37.5940 C.3     1  UNL1        0.0032
     74 C           3.5270   44.7540   37.1600 C.3     1  UNL1        0.0786
     75 C           3.6090   45.6220   35.9130 C.2     1  UNL1       -0.0445
     76 C           3.9410   45.0520   34.7360 C.2     1  UNL1       -0.0604
     77 C           3.8940   45.6730   33.4320 C.2     1  UNL1       -0.0617
     78 C           4.1240   44.9900   32.3000 C.2     1  UNL1       -0.0618
     79 C           2.1240   39.4950   22.6870 C.3     1  UNL1       -0.0377
     80 C           3.9310   45.5750   30.9920 C.2     1  UNL1       -0.0618
     81 C           4.0930   44.8810   29.8570 C.2     1  UNL1       -0.0618
     82 C           3.7820   45.4310   28.5570 C.2     1  UNL1       -0.0618
     83 C           3.9070   44.7210   27.4270 C.2     1  UNL1       -0.0621
     84 C           3.4900   45.2140   26.1350 C.2     1  UNL1       -0.0656
     85 C           3.5600   44.4520   25.0350 C.2     1  UNL1       -0.0805
     86 C           3.0450   44.8490   23.6780 C.3     1  UNL1        0.0026
     87 C           1.6580   44.2370   23.3850 C.3     1  UNL1        0.1037
     88 C           1.1910   44.4900   21.9550 C.3     1  UNL1       -0.0274
     89 C           3.2380   47.0720   36.1040 C.3     1  UNL1       -0.0411
     90 C           0.8040   39.5420   21.9130 C.3     1  UNL1       -0.0522
     91 O           1.5510   42.8330   23.7300 O.3     1  UNL1       -0.4611
     92 C           0.7890   38.4520   20.8360 C.3     1  UNL1       -0.0530
     93 C          -0.5050   38.4630   20.0230 C.3     1  UNL1       -0.0533
     94 C          -0.4900   37.3600   18.9630 C.3     1  UNL1       -0.0559
     95 C          -1.7660   37.3570   18.1380 C.3     1  UNL1       -0.0653
     96 O           0.8410   39.0740   25.1600 O.3     1  UNL1       -0.3909
     97 O           0.2900   39.6120   27.6500 O.3     1  UNL1       -0.3916
     98 O           0.2950   39.8900   30.2130 O.3     1  UNL1       -0.3916
     99 O           0.6470   40.0680   32.7500 O.3     1  UNL1       -0.3916
    100 O           1.2680   40.2530   35.2450 O.3     1  UNL1       -0.3916
    101 O          -0.1460   43.7660   36.9940 O.3     1  UNL1       -0.3916
    102 O           4.2150   45.4160   38.2180 O.3     1  UNL1       -0.3874
@<TRIPOS>BOND
     1    34    95    1
     2    41    95    1
     3    95    56    1
     4    95    94    1
     5    55    94    1
     6    94    33    1
     7    94    93    1
     8    32    93    1
     9    93    54    1
    10    93    92    1
    11    53    92    1
    12    92    31    1
    13    92    90    1
    14    28    88    1
    15    30    90    1
    16    50    88    1
    17    57    88    1
    18    90    52    1
    19    90    79    1
    20    88    87    1
    21    48    79    1
    22    60    59    2
    23    79    25    1
    24    79    61    1
    25    26    86    1
    26    59    91    1
    27    59    61    1
    28    87    86    1
    29    87    91    1
    30    87    27    1
    31    49    86    1
    32    86    85    1
    33    61    11    1
    34    61    62    1
    35    12    62    1
    36    62    96    1
    37    62    63    1
    38    85     2    1
    39    85    84    2
    40    96    35    1
    41     1    84    1
    42    13    63    1
    43    84    83    1
    44    63    42    1
    45    63    64    1
    46    36    97    1
    47    14    64    1
    48    64    97    1
    49    64    65    1
    50    83     4    1
    51    83    82    2
    52     3    82    1
    53    82    81    1
    54    15    65    1
    55    65    43    1
    56    65    66    1
    57    37    98    1
    58    81     5    1
    59    81    80    2
    60    16    66    1
    61    66    98    1
    62    66    67    1
    63     6    80    1
    64    80    78    1
    65    17    67    1
    66    44    67    1
    67    67    68    1
    68    38    99    1
    69    78     7    1
    70    78    77    2
    71    68    18    1
    72    68    99    1
    73    68    69    1
    74     8    77    1
    75    77    76    1
    76    45    69    1
    77    19    69    1
    78    69    70    1
    79    39   100    1
    80     9    76    1
    81    76    75    2
    82    70   100    1
    83    70    20    1
    84    70    71    1
    85    29    89    1
    86    22    72    1
    87    75    89    1
    88    75    74    1
    89    21    71    1
    90    89    58    1
    91    89    51    1
    92    71    72    1
    93    71    46    1
    94    72   101    1
    95    72    73    1
    96   101    40    1
    97    24    74    1
    98    74    73    1
    99    74   102    1
   100    73    47    1
   101    73    23    1
   102   102    10    1
