@<TRIPOS>MOLECULE
29.65230
 102 102 0 0 0
SMALL
GASTEIGER

@<TRIPOS>ATOM
      1 H           1.5410   47.0780   21.8550 H       1  UNL1        0.0614
      2 H           3.2850   44.9760   23.2660 H       1  UNL1        0.0573
      3 H           0.6440   48.7310   23.4080 H       1  UNL1        0.0618
      4 H           2.6190   46.8050   24.7670 H       1  UNL1        0.0617
      5 H           1.7870   48.5460   26.3000 H       1  UNL1        0.0618
      6 H          -0.3500   50.3120   24.9660 H       1  UNL1        0.0618
      7 H           0.8420   50.2110   27.8400 H       1  UNL1        0.0618
      8 H          -1.4590   51.7820   26.5480 H       1  UNL1        0.0618
      9 H          -0.1460   51.7910   29.3540 H       1  UNL1        0.0618
     10 H          -2.2350   54.8990   31.5100 H       1  UNL1        0.2102
     11 H           2.4940   41.3090   23.9390 H       1  UNL1        0.0439
     12 H          -0.3740   41.4430   25.0170 H       1  UNL1        0.0602
     13 H           0.6850   43.7270   24.8070 H       1  UNL1        0.0315
     14 H          -0.7840   43.1380   26.8210 H       1  UNL1        0.0595
     15 H          -0.0160   45.4660   26.4880 H       1  UNL1        0.0315
     16 H          -1.1400   44.8000   28.7290 H       1  UNL1        0.0595
     17 H          -0.7860   47.1870   28.1580 H       1  UNL1        0.0315
     18 H          -1.5310   46.5420   30.5530 H       1  UNL1        0.0595
     19 H          -1.5740   48.8940   29.7790 H       1  UNL1        0.0315
     20 H          -1.9890   48.3790   32.2980 H       1  UNL1        0.0595
     21 H          -0.6370   51.0500   31.6510 H       1  UNL1        0.0315
     22 H          -2.8670   50.5270   30.3690 H       1  UNL1        0.0595
     23 H          -2.9640   52.7900   32.4430 H       1  UNL1        0.0318
     24 H          -1.0070   53.1490   30.9880 H       1  UNL1        0.0641
     25 H           0.0520   39.6120   23.1900 H       1  UNL1        0.0274
     26 H           3.7920   44.3370   20.9950 H       1  UNL1        0.0343
     27 H           0.7360   44.1020   21.1920 H       1  UNL1        0.0734
     28 H           2.7390   42.4590   19.5410 H       1  UNL1        0.0265
     29 H          -3.1860   52.7460   27.2690 H       1  UNL1        0.0275
     30 H           2.9910   39.4460   22.3320 H       1  UNL1        0.0265
     31 H           0.5660   37.7140   21.6140 H       1  UNL1        0.0265
     32 H           3.4870   37.5690   20.6970 H       1  UNL1        0.0265
     33 H           1.0490   35.8530   19.9770 H       1  UNL1        0.0263
     34 H           2.6610   34.5370   18.6410 H       1  UNL1        0.0230
     35 H           2.1080   40.6400   26.1510 H       1  UNL1        0.2098
     36 H           0.7560   41.6350   27.6600 H       1  UNL1        0.2098
     37 H           0.8430   43.6510   29.3420 H       1  UNL1        0.2098
     38 H           0.6630   45.7270   30.9730 H       1  UNL1        0.2098
     39 H           0.3150   47.8590   32.5200 H       1  UNL1        0.2098
     40 H          -4.7070   50.5570   31.6980 H       1  UNL1        0.2098
     41 H           3.9630   35.6700   19.0440 H       1  UNL1        0.0230
     42 H           2.0790   43.1270   25.7260 H       1  UNL1        0.0315
     43 H           1.5330   45.0870   27.2660 H       1  UNL1        0.0315
     44 H           0.8830   47.0960   28.7530 H       1  UNL1        0.0315
     45 H           0.1360   49.0820   30.2030 H       1  UNL1        0.0315
     46 H          -1.5240   50.7260   33.1220 H       1  UNL1        0.0315
     47 H          -4.0330   52.6560   31.0960 H       1  UNL1        0.0318
     48 H           1.3790   39.0650   24.2120 H       1  UNL1        0.0274
     49 H           2.6360   45.4780   20.3070 H       1  UNL1        0.0343
     50 H           1.5840   43.6390   18.8770 H       1  UNL1        0.0265
     51 H          -3.1820   54.2800   28.1320 H       1  UNL1        0.0275
     52 H           1.6550   39.9470   21.2930 H       1  UNL1        0.0265
     53 H           1.9240   37.2020   22.6190 H       1  UNL1        0.0265
     54 H           2.1350   38.0970   19.6940 H       1  UNL1        0.0265
     55 H           2.4070   35.3230   20.9730 H       1  UNL1        0.0263
     56 H           2.5980   36.2030   18.0430 H       1  UNL1        0.0230
     57 H           1.0130   42.1500   19.6600 H       1  UNL1        0.0265
     58 H          -4.1010   52.8940   28.7540 H       1  UNL1        0.0275
     59 C           0.9400   42.1310   22.7040 C.2     1  UNL1        0.3130
     60 O          -0.2320   42.3520   22.4390 O.2     1  UNL1       -0.2504
     61 C           1.4110   41.1970   23.7990 C.3     1  UNL1        0.0823
     62 C           0.7100   41.5710   25.1200 C.3     1  UNL1        0.0705
     63 C           0.9970   43.0170   25.5800 C.3     1  UNL1        0.0001
     64 C           0.2860   43.3640   26.9000 C.3     1  UNL1        0.0600
     65 C           0.4610   44.8500   27.2600 C.3     1  UNL1       -0.0006
     66 C          -0.1190   45.1900   28.6440 C.3     1  UNL1        0.0599
     67 C          -0.1340   46.7060   28.8960 C.3     1  UNL1       -0.0006
     68 C          -0.5930   47.0590   30.3220 C.3     1  UNL1        0.0599
     69 C          -0.7980   48.5750   30.4800 C.3     1  UNL1       -0.0006
     70 C          -1.1580   48.9850   31.9210 C.3     1  UNL1        0.0599
     71 C          -1.4820   50.4800   32.0520 C.3     1  UNL1       -0.0006
     72 C          -2.8000   50.9010   31.3940 C.3     1  UNL1        0.0602
     73 C          -3.0060   52.4230   31.4080 C.3     1  UNL1        0.0032
     74 C          -2.0090   53.2190   30.5500 C.3     1  UNL1        0.0786
     75 C          -1.9780   52.7800   29.0940 C.2     1  UNL1       -0.0445
     76 C          -0.9450   52.0340   28.6520 C.2     1  UNL1       -0.0604
     77 C          -0.7790   51.4660   27.3330 C.2     1  UNL1       -0.0617
     78 C           0.1610   50.5480   27.0600 C.2     1  UNL1       -0.0618
     79 C           1.1240   39.7400   23.3860 C.3     1  UNL1       -0.0377
     80 C           0.2960   49.9370   25.7570 C.2     1  UNL1       -0.0618
     81 C           1.1490   48.9330   25.5080 C.2     1  UNL1       -0.0618
     82 C           1.2490   48.3080   24.2080 C.2     1  UNL1       -0.0618
     83 C           2.0230   47.2400   23.9680 C.2     1  UNL1       -0.0621
     84 C           2.0860   46.6080   22.6710 C.2     1  UNL1       -0.0656
     85 C           2.7520   45.4650   22.4530 C.2     1  UNL1       -0.0805
     86 C           2.7880   44.7600   21.1220 C.3     1  UNL1        0.0026
     87 C           1.7260   43.6510   21.0480 C.3     1  UNL1        0.1037
     88 C           1.7680   42.9420   19.7000 C.3     1  UNL1       -0.0274
     89 C          -3.1690   53.1930   28.2650 C.3     1  UNL1       -0.0411
     90 C           1.9190   39.3110   22.1460 C.3     1  UNL1       -0.0522
     91 O           2.0150   42.6820   22.0760 O.3     1  UNL1       -0.4611
     92 C           1.6410   37.8520   21.7820 C.3     1  UNL1       -0.0530
     93 C           2.4120   37.4390   20.5270 C.3     1  UNL1       -0.0533
     94 C           2.1240   35.9870   20.1480 C.3     1  UNL1       -0.0559
     95 C           2.8820   35.5780   18.8960 C.3     1  UNL1       -0.0653
     96 O           1.1330   40.6770   26.1620 O.3     1  UNL1       -0.3909
     97 O           0.8170   42.5690   27.9640 O.3     1  UNL1       -0.3916
     98 O           0.6680   44.5670   29.6640 O.3     1  UNL1       -0.3916
     99 O           0.3870   46.6260   31.2700 O.3     1  UNL1       -0.3916
    100 O          -0.0270   48.7470   32.7700 O.3     1  UNL1       -0.3916
    101 O          -3.8710   50.2900   32.1190 O.3     1  UNL1       -0.3916
    102 O          -2.3600   54.6010   30.5930 O.3     1  UNL1       -0.3874
@<TRIPOS>BOND
     1    56    95    1
     2    34    95    1
     3    50    88    1
     4    95    41    1
     5    95    94    1
     6    28    88    1
     7    57    88    1
     8    54    93    1
     9    88    87    1
    10    33    94    1
    11    94    93    1
    12    94    55    1
    13    49    86    1
    14    93    32    1
    15    93    92    1
    16    26    86    1
    17    87    86    1
    18    87    27    1
    19    87    91    1
    20    86    85    1
    21    52    90    1
    22    31    92    1
    23    92    90    1
    24    92    53    1
    25     1    84    1
    26    91    59    1
    27    90    30    1
    28    90    79    1
    29    60    59    2
    30    85    84    2
    31    85     2    1
    32    84    83    1
    33    59    61    1
    34    25    79    1
    35    79    61    1
    36    79    48    1
    37     3    82    1
    38    61    11    1
    39    61    62    1
    40    83    82    2
    41    83     4    1
    42    82    81    1
    43    13    63    1
    44     6    80    1
    45    12    62    1
    46    62    63    1
    47    62    96    1
    48    81    80    2
    49    81     5    1
    50    63    42    1
    51    63    64    1
    52    80    78    1
    53    35    96    1
    54    15    65    1
    55     8    77    1
    56    14    64    1
    57    64    65    1
    58    64    97    1
    59    78    77    2
    60    78     7    1
    61    65    43    1
    62    65    66    1
    63    29    89    1
    64    77    76    1
    65    36    97    1
    66    51    89    1
    67    17    67    1
    68    89    58    1
    69    89    75    1
    70    66    16    1
    71    66    67    1
    72    66    98    1
    73    76    75    2
    74    76     9    1
    75    44    67    1
    76    67    68    1
    77    75    74    1
    78    37    98    1
    79    19    69    1
    80    45    69    1
    81    68    69    1
    82    68    18    1
    83    68    99    1
    84    22    72    1
    85    69    70    1
    86    74   102    1
    87    74    24    1
    88    74    73    1
    89   102    10    1
    90    38    99    1
    91    47    73    1
    92    72    73    1
    93    72    71    1
    94    72   101    1
    95    73    23    1
    96    21    71    1
    97    40   101    1
    98    70    71    1
    99    70    20    1
   100    70   100    1
   101    71    46    1
   102    39   100    1
