@<TRIPOS>MOLECULE
33.43824
 102 102 0 0 0
SMALL
GASTEIGER

@<TRIPOS>ATOM
      1 H          -1.6990   42.2010   19.4290 H       1  UNL1        0.0614
      2 H           0.5650   44.2010   18.8520 H       1  UNL1        0.0573
      3 H           1.8460   41.9870   18.7150 H       1  UNL1        0.0618
      4 H          -0.8020   41.1840   17.3650 H       1  UNL1        0.0617
      5 H           1.1480   40.0720   16.3590 H       1  UNL1        0.0618
      6 H           3.7370   40.6370   17.9250 H       1  UNL1        0.0618
      7 H           3.0460   38.7860   15.5180 H       1  UNL1        0.0618
      8 H           5.5210   39.0740   17.3120 H       1  UNL1        0.0618
      9 H           4.8330   37.3600   14.8210 H       1  UNL1        0.0618
     10 H           8.4250   35.1090   13.9910 H       1  UNL1        0.2102
     11 H           0.6000   42.0300   23.6220 H       1  UNL1        0.0439
     12 H           3.2900   41.4860   22.2790 H       1  UNL1        0.0602
     13 H           1.1140   40.8010   21.0950 H       1  UNL1        0.0315
     14 H           3.2880   39.5480   20.7700 H       1  UNL1        0.0595
     15 H           1.1570   38.8430   19.5850 H       1  UNL1        0.0315
     16 H           3.4200   37.6390   19.2750 H       1  UNL1        0.0595
     17 H           1.3850   37.1500   17.8410 H       1  UNL1        0.0315
     18 H           3.6250   35.9820   17.5580 H       1  UNL1        0.0595
     19 H           1.8940   35.6830   15.8510 H       1  UNL1        0.0315
     20 H           2.8700   32.8430   16.5290 H       1  UNL1        0.0595
     21 H           4.1480   35.0200   14.7920 H       1  UNL1        0.0315
     22 H           5.2230   34.8210   17.1150 H       1  UNL1        0.0595
     23 H           6.9340   33.5470   14.9370 H       1  UNL1        0.0318
     24 H           6.2490   35.7400   14.1150 H       1  UNL1        0.0641
     25 H           2.2260   42.4920   25.3620 H       1  UNL1        0.0274
     26 H          -1.8610   44.1940   20.7800 H       1  UNL1        0.0343
     27 H           0.8960   45.5560   21.0140 H       1  UNL1        0.0734
     28 H          -1.6010   45.9200   22.7470 H       1  UNL1        0.0265
     29 H           7.2330   37.9300   17.7230 H       1  UNL1        0.0275
     30 H           3.6560   44.3080   23.3440 H       1  UNL1        0.0265
     31 H           4.2160   43.7640   26.3030 H       1  UNL1        0.0265
     32 H           5.5590   45.6270   24.2710 H       1  UNL1        0.0265
     33 H           6.1860   45.0860   27.2240 H       1  UNL1        0.0263
     34 H           7.8920   46.8540   26.9360 H       1  UNL1        0.0230
     35 H           2.0740   40.1900   24.5010 H       1  UNL1        0.2098
     36 H           3.3250   38.8680   23.0340 H       1  UNL1        0.2098
     37 H           3.1420   36.6950   21.4680 H       1  UNL1        0.2098
     38 H           3.1870   34.7470   19.5850 H       1  UNL1        0.2098
     39 H           1.2240   32.9030   15.0950 H       1  UNL1        0.2098
     40 H           4.7730   32.8410   17.7200 H       1  UNL1        0.2098
     41 H           7.4950   46.9960   25.2150 H       1  UNL1        0.0230
     42 H           0.7700   39.7720   22.4990 H       1  UNL1        0.0315
     43 H           0.8400   37.7110   20.9150 H       1  UNL1        0.0315
     44 H           0.9430   35.8630   18.9860 H       1  UNL1        0.0315
     45 H           1.0690   34.4970   16.8280 H       1  UNL1        0.0315
     46 H           4.4480   33.3180   14.5540 H       1  UNL1        0.0315
     47 H           7.5220   34.1890   16.4250 H       1  UNL1        0.0318
     48 H           1.5850   44.0000   24.7370 H       1  UNL1        0.0274
     49 H          -1.3810   45.5810   19.7910 H       1  UNL1        0.0343
     50 H          -0.9060   47.1470   21.6600 H       1  UNL1        0.0265
     51 H           8.5110   37.2740   16.7160 H       1  UNL1        0.0275
     52 H           4.3140   42.8100   24.0060 H       1  UNL1        0.0265
     53 H           3.5130   45.2530   25.6670 H       1  UNL1        0.0265
     54 H           6.2670   44.1410   24.9080 H       1  UNL1        0.0265
     55 H           5.4570   46.5680   26.6000 H       1  UNL1        0.0263
     56 H           8.2290   45.5050   25.8370 H       1  UNL1        0.0230
     57 H          -0.0040   46.5750   23.0810 H       1  UNL1        0.0265
     58 H           7.5200   36.1990   17.7220 H       1  UNL1        0.0275
     59 C           1.3700   43.3590   22.1450 C.2     1  UNL1        0.3130
     60 O           2.1390   43.5020   21.2040 O.2     1  UNL1       -0.2504
     61 C           1.5850   42.3870   23.2930 C.3     1  UNL1        0.0823
     62 C           2.3920   41.1630   22.8180 C.3     1  UNL1        0.0705
     63 C           1.5740   40.2280   21.9070 C.3     1  UNL1        0.0001
     64 C           2.4400   39.1070   21.3080 C.3     1  UNL1        0.0600
     65 C           1.6320   38.2190   20.3490 C.3     1  UNL1       -0.0006
     66 C           2.5220   37.1600   19.6820 C.3     1  UNL1        0.0599
     67 C           1.7840   36.4220   18.5560 C.3     1  UNL1       -0.0006
     68 C           2.7180   35.4390   17.8300 C.3     1  UNL1        0.0599
     69 C           2.0700   34.8730   16.5710 C.3     1  UNL1       -0.0006
     70 C           2.8190   33.7230   15.8800 C.3     1  UNL1        0.0599
     71 C           4.2100   34.0650   15.3240 C.3     1  UNL1       -0.0006
     72 C           5.3640   34.0740   16.3370 C.3     1  UNL1        0.0602
     73 C           6.7280   34.3310   15.6790 C.3     1  UNL1        0.0032
     74 C           6.8780   35.7100   15.0130 C.3     1  UNL1        0.0786
     75 C           6.5470   36.8820   15.9270 C.2     1  UNL1       -0.0445
     76 C           5.4390   37.6150   15.6910 C.2     1  UNL1       -0.0604
     77 C           4.9100   38.6900   16.5010 C.2     1  UNL1       -0.0617
     78 C           3.6740   39.1800   16.3150 C.2     1  UNL1       -0.0618
     79 C           2.2220   43.1430   24.4790 C.3     1  UNL1       -0.0377
     80 C           3.0910   40.1880   17.1730 C.2     1  UNL1       -0.0618
     81 C           1.7980   40.5350   17.1000 C.2     1  UNL1       -0.0618
     82 C           1.1890   41.4800   18.0100 C.2     1  UNL1       -0.0618
     83 C          -0.1320   41.7150   18.0380 C.2     1  UNL1       -0.0621
     84 C          -0.7800   42.5850   18.9930 C.2     1  UNL1       -0.0656
     85 C          -0.3370   43.8080   19.3210 C.2     1  UNL1       -0.0805
     86 C          -1.0000   44.7050   20.3300 C.3     1  UNL1        0.0026
     87 C          -0.0360   45.1620   21.4390 C.3     1  UNL1        0.1037
     88 C          -0.6770   46.2690   22.2720 C.3     1  UNL1       -0.0274
     89 C           7.4970   37.0860   17.0820 C.3     1  UNL1       -0.0411
     90 C           3.6460   43.6510   24.2210 C.3     1  UNL1       -0.0522
     91 O           0.2330   44.0790   22.3560 O.3     1  UNL1       -0.4611
     92 C           4.1880   44.4230   25.4270 C.3     1  UNL1       -0.0530
     93 C           5.5900   44.9690   25.1490 C.3     1  UNL1       -0.0533
     94 C           6.1350   45.7440   26.3480 C.3     1  UNL1       -0.0559
     95 C           7.5190   46.3060   26.0640 C.3     1  UNL1       -0.0653
     96 O           2.8470   40.3930   23.9410 O.3     1  UNL1       -0.3909
     97 O           2.9720   38.2690   22.3390 O.3     1  UNL1       -0.3916
     98 O           2.9520   36.1910   20.6430 O.3     1  UNL1       -0.3916
     99 O           3.0850   34.3570   18.6850 O.3     1  UNL1       -0.3916
    100 O           2.0160   33.3480   14.7450 O.3     1  UNL1       -0.3916
    101 O           5.4300   32.8080   16.9960 O.3     1  UNL1       -0.3916
    102 O           8.2200   35.8720   14.5570 O.3     1  UNL1       -0.3874
@<TRIPOS>BOND
     1    10   102    1
     2    24    74    1
     3    46    71    1
     4   102    74    1
     5   100    39    1
     6   100    70    1
     7    21    71    1
     8     9    76    1
     9    23    73    1
    10    74    73    1
    11    74    75    1
    12    71    70    1
    13    71    72    1
    14     7    78    1
    15    73    72    1
    16    73    47    1
    17    76    75    2
    18    76    77    1
    19    19    69    1
    20    70    20    1
    21    70    69    1
    22    75    89    1
    23    78    77    2
    24    78    80    1
    25    72   101    1
    26    72    22    1
    27     5    81    1
    28    77     8    1
    29    69    45    1
    30    69    68    1
    31    51    89    1
    32   101    40    1
    33    89    58    1
    34    89    29    1
    35    81    80    2
    36    81    82    1
    37    80     6    1
    38     4    83    1
    39    18    68    1
    40    68    67    1
    41    68    99    1
    42    17    67    1
    43    82    83    2
    44    82     3    1
    45    83    84    1
    46    67    44    1
    47    67    66    1
    48    99    38    1
    49     2    85    1
    50    84    85    2
    51    84     1    1
    52    16    66    1
    53    85    86    1
    54    15    65    1
    55    66    65    1
    56    66    98    1
    57    49    86    1
    58    86    26    1
    59    86    87    1
    60    65    43    1
    61    65    64    1
    62    98    37    1
    63    14    64    1
    64    27    87    1
    65    13    63    1
    66    60    59    2
    67    64    63    1
    68    64    97    1
    69    87    88    1
    70    87    91    1
    71    50    88    1
    72    63    42    1
    73    63    62    1
    74    59    91    1
    75    59    61    1
    76    88    28    1
    77    88    57    1
    78    12    62    1
    79    97    36    1
    80    62    61    1
    81    62    96    1
    82    61    11    1
    83    61    79    1
    84    30    90    1
    85    96    35    1
    86    52    90    1
    87    90    79    1
    88    90    92    1
    89    32    93    1
    90    79    48    1
    91    79    25    1
    92    54    93    1
    93    93    92    1
    94    93    94    1
    95    41    95    1
    96    92    53    1
    97    92    31    1
    98    56    95    1
    99    95    94    1
   100    95    34    1
   101    94    55    1
   102    94    33    1
