@<TRIPOS>MOLECULE
32.35760
 102 102 0 0 0
SMALL
GASTEIGER

@<TRIPOS>ATOM
      1 H           1.1640   45.2230   18.8440 H       1  UNL1        0.0614
      2 H           0.2130   42.3150   18.5750 H       1  UNL1        0.0573
      3 H           3.0270   45.7450   17.4070 H       1  UNL1        0.0618
      4 H           2.3800   42.7380   17.4140 H       1  UNL1        0.0617
      5 H           4.4670   43.2790   16.1690 H       1  UNL1        0.0618
      6 H           4.9010   46.3210   15.9970 H       1  UNL1        0.0618
      7 H           6.5130   43.8840   14.9260 H       1  UNL1        0.0618
      8 H           6.8660   46.9280   14.7380 H       1  UNL1        0.0618
      9 H           8.5590   44.4890   13.8380 H       1  UNL1        0.0618
     10 H          11.7760   46.0660   11.4840 H       1  UNL1        0.2102
     11 H           1.4630   41.3440   23.0960 H       1  UNL1        0.0439
     12 H           2.9240   44.0100   23.5180 H       1  UNL1        0.0602
     13 H           2.8790   43.3730   21.1130 H       1  UNL1        0.0315
     14 H           5.0830   44.2260   22.1100 H       1  UNL1        0.0595
     15 H           4.9780   43.9460   19.6940 H       1  UNL1        0.0315
     16 H           7.3430   44.1360   20.7660 H       1  UNL1        0.0595
     17 H           7.1050   44.4210   18.3430 H       1  UNL1        0.0315
     18 H           9.4860   44.0050   19.3030 H       1  UNL1        0.0595
     19 H           9.1930   44.8160   17.0030 H       1  UNL1        0.0315
     20 H          11.5470   43.9270   17.7190 H       1  UNL1        0.0595
     21 H          10.7520   43.6700   14.7720 H       1  UNL1        0.0315
     22 H          10.6170   46.0520   15.8960 H       1  UNL1        0.0595
     23 H          12.7180   45.6560   13.6870 H       1  UNL1        0.0318
     24 H          10.5750   44.8090   12.8440 H       1  UNL1        0.0641
     25 H           0.9220   43.5320   25.1700 H       1  UNL1        0.0274
     26 H          -1.7910   43.9790   19.1980 H       1  UNL1        0.0343
     27 H          -1.9390   43.3180   21.6530 H       1  UNL1        0.0734
     28 H          -1.3830   40.9800   19.7610 H       1  UNL1        0.0265
     29 H           8.2170   48.2830   13.8790 H       1  UNL1        0.0275
     30 H          -0.3850   40.7960   24.7120 H       1  UNL1        0.0265
     31 H          -0.8480   42.9370   26.8560 H       1  UNL1        0.0265
     32 H          -2.2370   40.2480   26.3700 H       1  UNL1        0.0265
     33 H          -2.6680   42.3950   28.5180 H       1  UNL1        0.0263
     34 H          -4.3500   40.8250   29.4230 H       1  UNL1        0.0230
     35 H           3.6060   41.3020   24.0580 H       1  UNL1        0.2098
     36 H           5.3780   42.3920   23.4350 H       1  UNL1        0.2098
     37 H           7.1450   41.9410   21.5680 H       1  UNL1        0.2098
     38 H           8.9300   41.7390   19.6370 H       1  UNL1        0.2098
     39 H          10.6980   41.7330   17.6540 H       1  UNL1        0.2098
     40 H          12.6510   46.9580   16.3150 H       1  UNL1        0.2098
     41 H          -4.0920   39.7200   28.0610 H       1  UNL1        0.0230
     42 H           3.3980   41.7300   21.5370 H       1  UNL1        0.0315
     43 H           5.1740   42.1900   19.8340 H       1  UNL1        0.0315
     44 H           7.0070   42.6650   18.1070 H       1  UNL1        0.0315
     45 H           8.8720   43.1720   16.4270 H       1  UNL1        0.0315
     46 H          12.4070   43.6260   15.3360 H       1  UNL1        0.0315
     47 H          12.0350   47.1790   14.1230 H       1  UNL1        0.0318
     48 H           1.6760   41.9770   25.5120 H       1  UNL1        0.0274
     49 H          -0.6420   44.7610   20.2650 H       1  UNL1        0.0343
     50 H          -2.9160   41.8810   19.8540 H       1  UNL1        0.0265
     51 H           9.4290   48.3640   12.6210 H       1  UNL1        0.0275
     52 H          -1.1630   42.3560   24.4350 H       1  UNL1        0.0265
     53 H          -0.1200   41.3530   27.1320 H       1  UNL1        0.0265
     54 H          -2.9630   41.8320   26.0880 H       1  UNL1        0.0265
     55 H          -1.9580   40.8040   28.7970 H       1  UNL1        0.0263
     56 H          -4.8040   41.3220   27.7840 H       1  UNL1        0.0230
     57 H          -2.3220   40.9430   21.2410 H       1  UNL1        0.0265
     58 H           9.9190   48.3360   14.3270 H       1  UNL1        0.0275
     59 C           0.5070   43.1730   22.5000 C.2     1  UNL1        0.3130
     60 O           0.2940   44.3730   22.5820 O.2     1  UNL1       -0.2504
     61 C           1.4630   42.4020   23.3900 C.3     1  UNL1        0.0823
     62 C           2.8960   42.9490   23.2440 C.3     1  UNL1        0.0705
     63 C           3.4740   42.7880   21.8220 C.3     1  UNL1        0.0001
     64 C           4.9540   43.2080   21.7240 C.3     1  UNL1        0.0600
     65 C           5.4660   43.1530   20.2730 C.3     1  UNL1       -0.0006
     66 C           6.9970   43.2810   20.1740 C.3     1  UNL1        0.0599
     67 C           7.4630   43.4550   18.7190 C.3     1  UNL1       -0.0006
     68 C           8.9930   43.3570   18.5690 C.3     1  UNL1        0.0599
     69 C           9.4430   43.7620   17.1550 C.3     1  UNL1       -0.0006
     70 C          10.9430   43.5100   16.9050 C.3     1  UNL1        0.0599
     71 C          11.4190   44.0560   15.5500 C.3     1  UNL1       -0.0006
     72 C          11.5190   45.5840   15.4930 C.3     1  UNL1        0.0602
     73 C          11.7950   46.1080   14.0750 C.3     1  UNL1        0.0032
     74 C          10.6560   45.8790   13.0670 C.3     1  UNL1        0.0786
     75 C           9.3190   46.4230   13.5450 C.2     1  UNL1       -0.0445
     76 C           8.3620   45.5570   13.9380 C.2     1  UNL1       -0.0604
     77 C           7.1090   45.8810   14.5820 C.2     1  UNL1       -0.0617
     78 C           6.2810   44.9390   15.0590 C.2     1  UNL1       -0.0618
     79 C           0.9640   42.4830   24.8490 C.3     1  UNL1       -0.0377
     80 C           5.0980   45.2650   15.8220 C.2     1  UNL1       -0.0618
     81 C           4.2800   44.3370   16.3410 C.2     1  UNL1       -0.0618
     82 C           3.1510   44.6900   17.1700 C.2     1  UNL1       -0.0618
     83 C           2.2800   43.7930   17.6570 C.2     1  UNL1       -0.0621
     84 C           1.1880   44.1840   18.5160 C.2     1  UNL1       -0.0656
     85 C           0.2200   43.3470   18.9160 C.2     1  UNL1       -0.0805
     86 C          -0.9030   43.7950   19.8160 C.3     1  UNL1        0.0026
     87 C          -1.2730   42.8120   20.9420 C.3     1  UNL1        0.1037
     88 C          -2.0190   41.5900   20.4100 C.3     1  UNL1       -0.0274
     89 C           9.2100   47.9270   13.6000 C.3     1  UNL1       -0.0411
     90 C          -0.4150   41.8400   25.0470 C.3     1  UNL1       -0.0522
     91 O          -0.1280   42.3110   21.6610 O.3     1  UNL1       -0.4611
     92 C          -0.8460   41.8950   26.5140 C.3     1  UNL1       -0.0530
     93 C          -2.2380   41.2910   26.7090 C.3     1  UNL1       -0.0533
     94 C          -2.6710   41.3550   28.1730 C.3     1  UNL1       -0.0559
     95 C          -4.0610   40.7700   28.3690 C.3     1  UNL1       -0.0653
     96 O           3.7590   42.2600   24.1650 O.3     1  UNL1       -0.3909
     97 O           5.7570   42.3380   22.5290 O.3     1  UNL1       -0.3916
     98 O           7.6090   42.1040   20.7140 O.3     1  UNL1       -0.3916
     99 O           9.4150   42.0140   18.8230 O.3     1  UNL1       -0.3916
    100 O          11.1740   42.0960   16.8720 O.3     1  UNL1       -0.3916
    101 O          12.5970   45.9870   16.3430 O.3     1  UNL1       -0.3916
    102 O          10.9880   46.5150   11.8350 O.3     1  UNL1       -0.3874
@<TRIPOS>BOND
     1    10   102    1
     2   102    74    1
     3    51    89    1
     4    24    74    1
     5    74    75    1
     6    74    73    1
     7    75    89    1
     8    75    76    2
     9    89    29    1
    10    89    58    1
    11    23    73    1
    12     9    76    1
    13    76    77    1
    14    73    47    1
    15    73    72    1
    16    77     8    1
    17    77    78    2
    18    21    71    1
    19     7    78    1
    20    78    80    1
    21    46    71    1
    22    72    71    1
    23    72    22    1
    24    72   101    1
    25    71    70    1
    26    80     6    1
    27    80    81    2
    28     5    81    1
    29    40   101    1
    30    81    82    1
    31    45    69    1
    32   100    70    1
    33   100    39    1
    34    70    69    1
    35    70    20    1
    36    19    69    1
    37    69    68    1
    38    82     3    1
    39    82    83    2
    40     4    83    1
    41    83    84    1
    42    44    67    1
    43    17    67    1
    44    84     1    1
    45    84    85    2
    46    68    67    1
    47    68    99    1
    48    68    18    1
    49     2    85    1
    50    67    66    1
    51    99    38    1
    52    85    86    1
    53    26    86    1
    54    15    65    1
    55    28    88    1
    56    86    49    1
    57    86    87    1
    58    43    65    1
    59    50    88    1
    60    66    65    1
    61    66    98    1
    62    66    16    1
    63    65    64    1
    64    88    87    1
    65    88    57    1
    66    98    37    1
    67    87    27    1
    68    87    91    1
    69    13    63    1
    70    42    63    1
    71    91    59    1
    72    64    63    1
    73    64    14    1
    74    64    97    1
    75    63    62    1
    76    59    60    2
    77    59    61    1
    78    97    36    1
    79    11    61    1
    80    62    61    1
    81    62    12    1
    82    62    96    1
    83    61    79    1
    84    35    96    1
    85    52    90    1
    86    30    90    1
    87    79    90    1
    88    79    25    1
    89    79    48    1
    90    90    92    1
    91    54    93    1
    92    32    93    1
    93    92    93    1
    94    92    31    1
    95    92    53    1
    96    93    94    1
    97    56    95    1
    98    41    95    1
    99    94    95    1
   100    94    33    1
   101    94    55    1
   102    95    34    1
