@<TRIPOS>MOLECULE
54.79492
 102 102 0 0 0
SMALL
GASTEIGER

@<TRIPOS>ATOM
      1 H          -0.9710   44.6820   24.2110 H       1  UNL1        0.0614
      2 H           0.7720   46.1180   22.1250 H       1  UNL1        0.0573
      3 H           0.0480   44.8160   26.3720 H       1  UNL1        0.0618
      4 H           1.2300   46.8770   24.4170 H       1  UNL1        0.0617
      5 H           2.2370   47.0080   26.7150 H       1  UNL1        0.0618
      6 H           1.5860   44.3600   28.1390 H       1  UNL1        0.0618
      7 H           3.7590   46.5270   28.6790 H       1  UNL1        0.0618
      8 H           3.4740   43.5460   29.3900 H       1  UNL1        0.0618
      9 H           5.9550   44.1140   29.4360 H       1  UNL1        0.0618
     10 H           8.2210   46.1380   32.7690 H       1  UNL1        0.2102
     11 H           1.3850   40.1170   23.4010 H       1  UNL1        0.0439
     12 H           3.0510   42.0190   23.1720 H       1  UNL1        0.0602
     13 H           3.4560   40.1080   24.8690 H       1  UNL1        0.0315
     14 H           5.3400   41.6060   24.5020 H       1  UNL1        0.0595
     15 H           5.4300   40.2000   26.6090 H       1  UNL1        0.0315
     16 H           7.4430   41.6160   26.1620 H       1  UNL1        0.0595
     17 H           7.3900   40.3210   28.2870 H       1  UNL1        0.0315
     18 H           9.3410   41.9180   28.0260 H       1  UNL1        0.0595
     19 H           9.3580   40.4990   29.9510 H       1  UNL1        0.0315
     20 H          10.5510   41.6280   31.6140 H       1  UNL1        0.0595
     21 H           9.6310   44.4120   30.7340 H       1  UNL1        0.0315
     22 H           8.9180   42.7090   33.1780 H       1  UNL1        0.0595
     23 H           6.7580   43.7650   33.1310 H       1  UNL1        0.0318
     24 H           7.6500   45.3830   30.6860 H       1  UNL1        0.0641
     25 H          -0.2140   41.9800   25.2400 H       1  UNL1        0.0274
     26 H           0.2740   44.1950   20.8070 H       1  UNL1        0.0343
     27 H          -2.2470   43.6440   22.4370 H       1  UNL1        0.0734
     28 H          -1.0610   42.1020   20.0840 H       1  UNL1        0.0265
     29 H           3.5570   45.8640   31.7500 H       1  UNL1        0.0275
     30 H          -0.5680   39.0230   24.4960 H       1  UNL1        0.0265
     31 H          -2.3010   40.9610   26.1200 H       1  UNL1        0.0265
     32 H          -2.6870   37.9940   25.4580 H       1  UNL1        0.0265
     33 H          -4.4030   39.9530   27.0800 H       1  UNL1        0.0263
     34 H          -5.8370   37.9850   27.5070 H       1  UNL1        0.0230
     35 H           1.8150   43.7300   23.8990 H       1  UNL1        0.2098
     36 H           3.6590   43.4950   25.4040 H       1  UNL1        0.2098
     37 H           5.9780   43.6080   26.3610 H       1  UNL1        0.2098
     38 H           7.8570   43.7720   28.1130 H       1  UNL1        0.2098
     39 H          10.9650   43.1820   29.2970 H       1  UNL1        0.2098
     40 H           8.6650   44.5660   34.3380 H       1  UNL1        0.2098
     41 H          -4.8250   36.9840   26.4510 H       1  UNL1        0.0230
     42 H           2.7840   41.1920   26.0970 H       1  UNL1        0.0315
     43 H           4.6880   41.5460   27.4900 H       1  UNL1        0.0315
     44 H           6.4860   41.6260   29.0700 H       1  UNL1        0.0315
     45 H           8.1750   41.4380   30.8230 H       1  UNL1        0.0315
     46 H          10.8170   44.0050   31.8960 H       1  UNL1        0.0315
     47 H           7.0320   43.0350   31.5570 H       1  UNL1        0.0318
     48 H           0.7350   40.6240   25.8210 H       1  UNL1        0.0274
     49 H          -1.2050   45.1390   20.7770 H       1  UNL1        0.0343
     50 H          -2.5710   43.0220   20.1100 H       1  UNL1        0.0265
     51 H           4.8160   47.0590   32.0670 H       1  UNL1        0.0275
     52 H          -1.5470   40.3180   23.8140 H       1  UNL1        0.0265
     53 H          -1.3470   39.6370   26.7930 H       1  UNL1        0.0265
     54 H          -3.6350   39.3180   24.7760 H       1  UNL1        0.0265
     55 H          -3.4610   38.6240   27.7590 H       1  UNL1        0.0263
     56 H          -5.7720   38.3210   25.7680 H       1  UNL1        0.0230
     57 H          -2.3900   41.5540   21.0990 H       1  UNL1        0.0265
     58 H           4.6870   45.5950   33.0710 H       1  UNL1        0.0275
     59 C           0.5090   41.8350   22.5370 C.2     1  UNL1        0.3130
     60 O           1.0410   41.8600   21.4340 O.2     1  UNL1       -0.2504
     61 C           1.1350   41.1300   23.7430 C.3     1  UNL1        0.0823
     62 C           2.4500   41.8750   24.0780 C.3     1  UNL1        0.0705
     63 C           3.3130   41.1610   25.1370 C.3     1  UNL1        0.0001
     64 C           4.6950   41.8190   25.3620 C.3     1  UNL1        0.0600
     65 C           5.3510   41.2930   26.6510 C.3     1  UNL1       -0.0006
     66 C           6.7380   41.9000   26.9510 C.3     1  UNL1        0.0599
     67 C           7.2560   41.4090   28.3170 C.3     1  UNL1       -0.0006
     68 C           8.5620   42.0870   28.7770 C.3     1  UNL1        0.0599
     69 C           9.0190   41.5280   30.1340 C.3     1  UNL1       -0.0006
     70 C          10.1600   42.2850   30.8260 C.3     1  UNL1        0.0599
     71 C           9.8610   43.6480   31.4820 C.3     1  UNL1       -0.0006
     72 C           8.8260   43.6460   32.6160 C.3     1  UNL1        0.0602
     73 C           7.3550   43.8480   32.2110 C.3     1  UNL1        0.0032
     74 C           7.0220   45.2090   31.5660 C.3     1  UNL1        0.0786
     75 C           5.5600   45.2710   31.1390 C.2     1  UNL1       -0.0445
     76 C           5.1970   44.6550   30.0000 C.2     1  UNL1       -0.0604
     77 C           3.8900   44.5510   29.4060 C.2     1  UNL1       -0.0617
     78 C           3.2900   45.5480   28.7400 C.2     1  UNL1       -0.0618
     79 C           0.1830   40.9980   24.9530 C.3     1  UNL1       -0.0377
     80 C           2.0950   45.3070   27.9630 C.2     1  UNL1       -0.0618
     81 C           1.6920   46.0990   26.9570 C.2     1  UNL1       -0.0618
     82 C           0.6560   45.6590   26.0460 C.2     1  UNL1       -0.0618
     83 C           0.5670   46.0950   24.7800 C.2     1  UNL1       -0.0621
     84 C          -0.2380   45.3790   23.8120 C.2     1  UNL1       -0.0656
     85 C           0.0140   45.4280   22.4940 C.2     1  UNL1       -0.0805
     86 C          -0.5680   44.5270   21.4270 C.3     1  UNL1        0.0026
     87 C          -1.3620   43.2890   21.8940 C.3     1  UNL1        0.1037
     88 C          -1.8750   42.4460   20.7290 C.3     1  UNL1       -0.0274
     89 C           4.6010   45.9860   32.0510 C.3     1  UNL1       -0.0411
     90 C          -0.9730   40.0210   24.6990 C.3     1  UNL1       -0.0522
     91 O          -0.6440   42.4740   22.8560 O.3     1  UNL1       -0.4611
     92 C          -1.9100   39.9590   25.9080 C.3     1  UNL1       -0.0530
     93 C          -3.0750   38.9990   25.6640 C.3     1  UNL1       -0.0533
     94 C          -4.0130   38.9500   26.8700 C.3     1  UNL1       -0.0559
     95 C          -5.1790   38.0040   26.6320 C.3     1  UNL1       -0.0653
     96 O           2.1620   43.1670   24.6190 O.3     1  UNL1       -0.3909
     97 O           4.6070   43.2420   25.4760 O.3     1  UNL1       -0.3916
     98 O           6.6900   43.3280   26.9840 O.3     1  UNL1       -0.3916
     99 O           8.3840   43.4930   28.8980 O.3     1  UNL1       -0.3916
    100 O          11.2310   42.4540   29.8910 O.3     1  UNL1       -0.3916
    101 O           9.1820   44.7020   33.5220 O.3     1  UNL1       -0.3916
    102 O           7.2960   46.2720   32.4750 O.3     1  UNL1       -0.3874
@<TRIPOS>BOND
     1    28    88    1
     2    50    88    1
     3    88    57    1
     4    88    87    1
     5    49    86    1
     6    26    86    1
     7    86    87    1
     8    86    85    1
     9    60    59    2
    10    87    27    1
    11    87    91    1
    12     2    85    1
    13    85    84    2
    14    59    91    1
    15    59    61    1
    16    12    62    1
    17    11    61    1
    18    61    62    1
    19    61    79    1
    20    84     1    1
    21    84    83    1
    22    52    90    1
    23    35    96    1
    24    62    96    1
    25    62    63    1
    26     4    83    1
    27    30    90    1
    28    14    64    1
    29    90    79    1
    30    90    92    1
    31    54    93    1
    32    83    82    2
    33    13    63    1
    34    79    25    1
    35    79    48    1
    36    63    64    1
    37    63    42    1
    38    64    97    1
    39    64    65    1
    40    36    97    1
    41    32    93    1
    42    93    92    1
    43    93    94    1
    44    56    95    1
    45    92    31    1
    46    92    53    1
    47    82     3    1
    48    82    81    1
    49    16    66    1
    50    37    98    1
    51    41    95    1
    52    15    65    1
    53    95    94    1
    54    95    34    1
    55    65    66    1
    56    65    43    1
    57     5    81    1
    58    94    33    1
    59    94    55    1
    60    66    98    1
    61    66    67    1
    62    81    80    2
    63    80     6    1
    64    80    78    1
    65    18    68    1
    66    38    99    1
    67    17    67    1
    68    67    68    1
    69    67    44    1
    70     7    78    1
    71    78    77    2
    72    68    99    1
    73    68    69    1
    74    39   100    1
    75     8    77    1
    76    77    76    1
    77     9    76    1
    78   100    70    1
    79    19    69    1
    80    76    75    2
    81    69    45    1
    82    69    70    1
    83    24    74    1
    84    21    71    1
    85    70    71    1
    86    70    20    1
    87    75    74    1
    88    75    89    1
    89    71    46    1
    90    71    72    1
    91    47    73    1
    92    74    73    1
    93    74   102    1
    94    29    89    1
    95    89    51    1
    96    89    58    1
    97    73    72    1
    98    73    23    1
    99   102    10    1
   100    72    22    1
   101    72   101    1
   102   101    40    1
