@<TRIPOS>MOLECULE
44.16931
 102 102 0 0 0
SMALL
GASTEIGER

@<TRIPOS>ATOM
      1 H           2.7880   44.1090   21.3250 H       1  UNL1        0.0614
      2 H           2.6120   42.6480   18.6280 H       1  UNL1        0.0573
      3 H           5.0980   44.0460   22.1980 H       1  UNL1        0.0618
      4 H           4.8870   43.0390   19.2970 H       1  UNL1        0.0617
      5 H           7.1600   43.0350   20.0970 H       1  UNL1        0.0618
      6 H           7.3380   43.4960   23.1350 H       1  UNL1        0.0618
      7 H           9.3500   42.5740   20.9460 H       1  UNL1        0.0618
      8 H           9.4670   42.5510   24.0140 H       1  UNL1        0.0618
      9 H          11.4080   41.7710   21.7250 H       1  UNL1        0.0618
     10 H          14.9980   40.4060   23.5390 H       1  UNL1        0.2102
     11 H           0.6250   41.3110   24.4050 H       1  UNL1        0.0439
     12 H           3.1660   42.5000   23.2380 H       1  UNL1        0.0602
     13 H           1.9360   40.6020   22.0380 H       1  UNL1        0.0315
     14 H           4.4490   40.8700   21.8110 H       1  UNL1        0.0595
     15 H           3.0320   38.8970   20.7740 H       1  UNL1        0.0315
     16 H           5.0890   37.5600   20.1130 H       1  UNL1        0.0595
     17 H           6.5220   38.1720   22.1500 H       1  UNL1        0.0315
     18 H           7.6320   37.2710   20.1170 H       1  UNL1        0.0595
     19 H           8.9510   38.1830   22.1020 H       1  UNL1        0.0315
     20 H          10.2410   37.0030   20.3450 H       1  UNL1        0.0595
     21 H          11.7180   39.6170   20.8720 H       1  UNL1        0.0315
     22 H          10.8080   38.6540   23.0990 H       1  UNL1        0.0595
     23 H          13.8380   38.3810   22.7610 H       1  UNL1        0.0318
     24 H          13.3270   40.6700   22.1420 H       1  UNL1        0.0641
     25 H           1.6640   42.1170   26.4360 H       1  UNL1        0.0274
     26 H           0.4350   42.0560   19.4500 H       1  UNL1        0.0343
     27 H           0.3880   44.5470   21.2240 H       1  UNL1        0.0734
     28 H          -1.6970   42.3280   20.7710 H       1  UNL1        0.0265
     29 H          10.6720   41.5430   25.4490 H       1  UNL1        0.0275
     30 H           1.9770   44.8500   25.0650 H       1  UNL1        0.0265
     31 H           2.6890   43.9110   27.8880 H       1  UNL1        0.0265
     32 H           2.8280   46.6650   26.5470 H       1  UNL1        0.0265
     33 H           3.6650   45.7470   29.3500 H       1  UNL1        0.0263
     34 H           4.1480   48.1420   29.7270 H       1  UNL1        0.0230
     35 H           3.1280   40.6430   25.3910 H       1  UNL1        0.2098
     36 H           4.8620   40.4580   24.0360 H       1  UNL1        0.2098
     37 H           4.2540   39.3110   18.9460 H       1  UNL1        0.2098
     38 H           6.8260   39.3890   18.9570 H       1  UNL1        0.2098
     39 H           9.4360   38.7710   18.7520 H       1  UNL1        0.2098
     40 H          11.7080   36.6690   23.7100 H       1  UNL1        0.2098
     41 H           3.7160   48.5230   28.0510 H       1  UNL1        0.0230
     42 H           2.2100   39.6030   23.4730 H       1  UNL1        0.0315
     43 H           3.7760   37.9060   22.0400 H       1  UNL1        0.0315
     44 H           6.6320   39.8160   21.4730 H       1  UNL1        0.0315
     45 H           9.1180   39.7090   21.2130 H       1  UNL1        0.0315
     46 H          12.4190   38.0540   20.5520 H       1  UNL1        0.0315
     47 H          13.0040   38.4980   24.2670 H       1  UNL1        0.0318
     48 H           0.3480   43.1730   25.9800 H       1  UNL1        0.0274
     49 H           0.3120   43.7140   18.8610 H       1  UNL1        0.0343
     50 H          -1.8270   43.9910   20.1500 H       1  UNL1        0.0265
     51 H          12.4020   41.4270   25.7210 H       1  UNL1        0.0275
     52 H           3.3170   43.7980   25.4870 H       1  UNL1        0.0265
     53 H           1.3010   44.9280   27.4890 H       1  UNL1        0.0265
     54 H           4.2240   45.6520   26.9160 H       1  UNL1        0.0265
     55 H           2.2460   46.7360   28.9940 H       1  UNL1        0.0263
     56 H           5.1460   47.5300   28.3960 H       1  UNL1        0.0230
     57 H          -1.8690   43.6670   21.8930 H       1  UNL1        0.0265
     58 H          11.4410   39.9630   25.4280 H       1  UNL1        0.0275
     59 C           0.6070   43.1210   23.3040 C.2     1  UNL1        0.3130
     60 O           0.0620   44.1730   23.6110 O.2     1  UNL1       -0.2504
     61 C           1.2930   42.1760   24.2930 C.3     1  UNL1        0.0823
     62 C           2.6740   41.6900   23.7860 C.3     1  UNL1        0.0705
     63 C           2.6100   40.4370   22.8820 C.3     1  UNL1        0.0001
     64 C           3.9980   40.0280   22.3430 C.3     1  UNL1        0.0600
     65 C           3.9130   38.8020   21.4210 C.3     1  UNL1       -0.0006
     66 C           5.1490   38.5740   20.5260 C.3     1  UNL1        0.0599
     67 C           6.5040   38.7560   21.2220 C.3     1  UNL1       -0.0006
     68 C           7.7050   38.3380   20.3550 C.3     1  UNL1        0.0599
     69 C           9.0180   38.6220   21.1020 C.3     1  UNL1       -0.0006
     70 C          10.2800   38.0970   20.3920 C.3     1  UNL1        0.0599
     71 C          11.5860   38.5490   21.0710 C.3     1  UNL1       -0.0006
     72 C          11.6810   38.2620   22.5720 C.3     1  UNL1        0.0602
     73 C          12.9500   38.8360   23.2220 C.3     1  UNL1        0.0032
     74 C          13.0860   40.3690   23.1690 C.3     1  UNL1        0.0786
     75 C          11.8590   41.1200   23.6640 C.2     1  UNL1       -0.0445
     76 C          11.0880   41.7700   22.7680 C.2     1  UNL1       -0.0604
     77 C           9.8130   42.4130   22.9950 C.2     1  UNL1       -0.0617
     78 C           9.0180   42.7530   21.9680 C.2     1  UNL1       -0.0618
     79 C           1.3590   42.8590   25.6870 C.3     1  UNL1       -0.0377
     80 C           7.6710   43.2550   22.1280 C.2     1  UNL1       -0.0618
     81 C           6.8240   43.3280   21.0910 C.2     1  UNL1       -0.0618
     82 C           5.4280   43.6770   21.2300 C.2     1  UNL1       -0.0618
     83 C           4.5450   43.4540   20.2440 C.2     1  UNL1       -0.0621
     84 C           3.1200   43.6230   20.4130 C.2     1  UNL1       -0.0656
     85 C           2.2370   43.1300   19.5310 C.2     1  UNL1       -0.0805
     86 C           0.7330   43.0920   19.6600 C.3     1  UNL1        0.0026
     87 C           0.1150   43.5050   21.0090 C.3     1  UNL1        0.1037
     88 C          -1.4060   43.3690   20.9470 C.3     1  UNL1       -0.0274
     89 C          11.5730   41.0110   25.1390 C.3     1  UNL1       -0.0411
     90 C           2.2970   44.0750   25.7690 C.3     1  UNL1       -0.0522
     91 O           0.6270   42.6260   22.0370 O.3     1  UNL1       -0.4611
     92 C           2.3200   44.6650   27.1820 C.3     1  UNL1       -0.0530
     93 C           3.2090   45.9090   27.2430 C.3     1  UNL1       -0.0533
     94 C           3.2590   46.4910   28.6550 C.3     1  UNL1       -0.0559
     95 C           4.1180   47.7450   28.7080 C.3     1  UNL1       -0.0653
     96 O           3.5390   41.3740   24.8900 O.3     1  UNL1       -0.3909
     97 O           4.8450   39.6790   23.4400 O.3     1  UNL1       -0.3916
     98 O           5.0970   39.4720   19.4070 O.3     1  UNL1       -0.3916
     99 O           7.7370   39.0550   19.1170 O.3     1  UNL1       -0.3916
    100 O          10.3540   38.5790   19.0450 O.3     1  UNL1       -0.3916
    101 O          11.6710   36.8440   22.7530 O.3     1  UNL1       -0.3916
    102 O          14.2010   40.7610   23.9680 O.3     1  UNL1       -0.3874
@<TRIPOS>BOND
     1     2    85    1
     2    39   100    1
     3    49    86    1
     4    37    98    1
     5    38    99    1
     6   100    70    1
     7    99    68    1
     8     4    83    1
     9    98    66    1
    10    26    86    1
    11    85    86    1
    12    85    84    2
    13    86    87    1
    14     5    81    1
    15    16    66    1
    16    18    68    1
    17    50    88    1
    18    83    84    1
    19    83    82    2
    20    20    70    1
    21    68    69    1
    22    68    67    1
    23    70    71    1
    24    70    69    1
    25    84     1    1
    26    66    67    1
    27    66    65    1
    28    46    71    1
    29    28    88    1
    30    15    65    1
    31    21    71    1
    32     7    78    1
    33    88    87    1
    34    88    57    1
    35    87    27    1
    36    87    91    1
    37    71    72    1
    38    81    82    1
    39    81    80    2
    40    69    45    1
    41    69    19    1
    42    67    44    1
    43    67    17    1
    44    82     3    1
    45    65    43    1
    46    65    64    1
    47     9    76    1
    48    14    64    1
    49    78    80    1
    50    78    77    2
    51    91    59    1
    52    13    63    1
    53    80     6    1
    54    24    74    1
    55    64    63    1
    56    64    97    1
    57    72   101    1
    58    72    22    1
    59    72    73    1
    60   101    40    1
    61    23    73    1
    62    76    77    1
    63    76    75    2
    64    63    42    1
    65    63    62    1
    66    77     8    1
    67    74    73    1
    68    74    75    1
    69    74   102    1
    70    73    47    1
    71    12    62    1
    72    59    60    2
    73    59    61    1
    74    97    36    1
    75    10   102    1
    76    75    89    1
    77    62    61    1
    78    62    96    1
    79    61    11    1
    80    61    79    1
    81    96    35    1
    82    30    90    1
    83    89    58    1
    84    89    29    1
    85    89    51    1
    86    52    90    1
    87    79    90    1
    88    79    48    1
    89    79    25    1
    90    90    92    1
    91    32    93    1
    92    54    93    1
    93    92    93    1
    94    92    53    1
    95    92    31    1
    96    93    94    1
    97    41    95    1
    98    56    95    1
    99    94    95    1
   100    94    55    1
   101    94    33    1
   102    95    34    1
