@<TRIPOS>MOLECULE
42.61349
 102 102 0 0 0
SMALL
GASTEIGER

@<TRIPOS>ATOM
      1 H           1.2180   44.5740   20.0810 H       1  UNL1        0.0614
      2 H           1.9870   46.2310   22.5540 H       1  UNL1        0.0573
      3 H           3.0290   44.4140   18.4740 H       1  UNL1        0.0618
      4 H           3.9450   45.6270   21.1480 H       1  UNL1        0.0617
      5 H           5.8400   44.9730   19.6820 H       1  UNL1        0.0618
      6 H           4.8420   44.1600   16.8880 H       1  UNL1        0.0618
      7 H           7.6670   44.2450   18.1860 H       1  UNL1        0.0618
      8 H           6.6330   43.6920   15.3470 H       1  UNL1        0.0618
      9 H           9.3610   43.2970   16.7560 H       1  UNL1        0.0618
     10 H          12.3290   42.7330   14.0530 H       1  UNL1        0.2102
     11 H           1.3920   40.8270   24.1620 H       1  UNL1        0.0439
     12 H           3.2650   42.9210   22.9450 H       1  UNL1        0.0602
     13 H           2.0680   41.3730   21.3800 H       1  UNL1        0.0315
     14 H           4.4500   41.9400   20.7520 H       1  UNL1        0.0595
     15 H           3.2090   40.4720   19.2250 H       1  UNL1        0.0315
     16 H           5.7470   40.5710   18.8170 H       1  UNL1        0.0595
     17 H           4.3270   39.4030   17.1570 H       1  UNL1        0.0315
     18 H           6.6410   37.5040   17.8950 H       1  UNL1        0.0595
     19 H           7.4520   39.8200   17.3740 H       1  UNL1        0.0315
     20 H           8.7580   37.7750   16.5390 H       1  UNL1        0.0595
     21 H           8.8080   40.0810   14.5360 H       1  UNL1        0.0315
     22 H           9.2300   40.9110   16.9120 H       1  UNL1        0.0595
     23 H          11.9040   40.8020   15.4530 H       1  UNL1        0.0318
     24 H          10.4840   41.5420   13.6960 H       1  UNL1        0.0641
     25 H           2.5250   43.2000   25.7180 H       1  UNL1        0.0274
     26 H          -0.5430   44.6850   21.6510 H       1  UNL1        0.0343
     27 H           0.0970   45.8800   24.3820 H       1  UNL1        0.0734
     28 H          -1.9750   43.7820   23.5810 H       1  UNL1        0.0265
     29 H           7.6070   43.7270   13.4250 H       1  UNL1        0.0275
     30 H           0.5910   40.9700   26.5620 H       1  UNL1        0.0265
     31 H           1.6510   43.4560   28.0100 H       1  UNL1        0.0265
     32 H          -0.2790   41.2720   28.9560 H       1  UNL1        0.0265
     33 H           0.8050   43.7810   30.3500 H       1  UNL1        0.0263
     34 H          -0.4770   42.9750   32.3020 H       1  UNL1        0.0230
     35 H           4.0350   40.5380   24.2910 H       1  UNL1        0.2098
     36 H           5.3400   40.9990   22.6640 H       1  UNL1        0.2098
     37 H           6.0990   39.3400   20.8220 H       1  UNL1        0.2098
     38 H           5.0580   36.6220   16.5760 H       1  UNL1        0.2098
     39 H           6.9380   37.3390   15.0090 H       1  UNL1        0.2098
     40 H          11.0100   40.0880   17.9920 H       1  UNL1        0.2098
     41 H          -1.1280   41.6260   31.3550 H       1  UNL1        0.0230
     42 H           2.6690   39.9930   22.3140 H       1  UNL1        0.0315
     43 H           3.5090   39.0730   20.2660 H       1  UNL1        0.0315
     44 H           4.2150   37.9940   18.1820 H       1  UNL1        0.0315
     45 H           6.5430   39.7820   15.8500 H       1  UNL1        0.0315
     46 H          10.0690   38.8930   14.7680 H       1  UNL1        0.0315
     47 H          11.3710   42.0030   16.5670 H       1  UNL1        0.0318
     48 H           2.9170   41.5130   26.0080 H       1  UNL1        0.0274
     49 H          -0.6320   46.3680   22.1490 H       1  UNL1        0.0343
     50 H          -2.2900   45.4680   24.0210 H       1  UNL1        0.0265
     51 H           8.0780   42.0540   13.0730 H       1  UNL1        0.0275
     52 H           0.0800   42.6230   26.2340 H       1  UNL1        0.0265
     53 H           2.1000   41.7880   28.3750 H       1  UNL1        0.0265
     54 H          -0.7400   42.9290   28.5630 H       1  UNL1        0.0265
     55 H           1.2500   42.1220   30.7510 H       1  UNL1        0.0263
     56 H          -1.5750   43.2950   30.9490 H       1  UNL1        0.0230
     57 H          -1.6380   44.3260   25.2190 H       1  UNL1        0.0265
     58 H           9.1240   43.4120   12.6090 H       1  UNL1        0.0275
     59 C           0.7420   42.7610   23.5730 C.2     1  UNL1        0.3130
     60 O          -0.0090   42.4190   22.6700 O.2     1  UNL1       -0.2504
     61 C           1.8080   41.8430   24.1630 C.3     1  UNL1        0.0823
     62 C           3.0600   41.8890   23.2500 C.3     1  UNL1        0.0705
     63 C           2.9080   41.0140   21.9860 C.3     1  UNL1        0.0001
     64 C           4.1750   40.9400   21.1050 C.3     1  UNL1        0.0600
     65 C           3.9430   40.0110   19.8950 C.3     1  UNL1       -0.0006
     66 C           5.2260   39.6550   19.1160 C.3     1  UNL1        0.0599
     67 C           4.8930   38.8050   17.8820 C.3     1  UNL1       -0.0006
     68 C           6.1030   38.1520   17.1930 C.3     1  UNL1        0.0599
     69 C           7.0840   39.1660   16.5800 C.3     1  UNL1       -0.0006
     70 C           8.2690   38.4840   15.8620 C.3     1  UNL1        0.0599
     71 C           9.3030   39.4730   15.3000 C.3     1  UNL1       -0.0006
     72 C           9.9830   40.3590   16.3460 C.3     1  UNL1        0.0602
     73 C          11.0030   41.3520   15.7620 C.3     1  UNL1        0.0032
     74 C          10.5260   42.2040   14.5710 C.3     1  UNL1        0.0786
     75 C           9.1910   42.9160   14.6980 C.2     1  UNL1       -0.0445
     76 C           8.7150   43.3520   15.8810 C.2     1  UNL1       -0.0604
     77 C           7.3620   43.7830   16.1480 C.2     1  UNL1       -0.0617
     78 C           6.9540   44.1630   17.3670 C.2     1  UNL1       -0.0618
     79 C           2.1290   42.1800   25.6400 C.3     1  UNL1       -0.0377
     80 C           5.5600   44.3770   17.6770 C.2     1  UNL1       -0.0618
     81 C           5.1290   44.7490   18.8900 C.2     1  UNL1       -0.0618
     82 C           3.7240   44.7950   19.2200 C.2     1  UNL1       -0.0618
     83 C           3.2620   45.2290   20.4010 C.2     1  UNL1       -0.0621
     84 C           1.8670   45.1360   20.7520 C.2     1  UNL1       -0.0656
     85 C           1.3580   45.6570   21.8770 C.2     1  UNL1       -0.0805
     86 C          -0.0720   45.4360   22.2950 C.3     1  UNL1        0.0026
     87 C          -0.1810   45.0120   23.7700 C.3     1  UNL1        0.1037
     88 C          -1.6030   44.6280   24.1670 C.3     1  UNL1       -0.0274
     89 C           8.4510   43.0330   13.3870 C.3     1  UNL1       -0.0411
     90 C           0.9230   42.0150   26.5760 C.3     1  UNL1       -0.0522
     91 O           0.7680   43.9880   24.1510 O.3     1  UNL1       -0.4611
     92 C           1.2840   42.4220   28.0060 C.3     1  UNL1       -0.0530
     93 C           0.0800   42.3080   28.9420 C.3     1  UNL1       -0.0533
     94 C           0.4390   42.7480   30.3610 C.3     1  UNL1       -0.0559
     95 C          -0.7570   42.6540   31.2940 C.3     1  UNL1       -0.0653
     96 O           4.2190   41.4410   23.9680 O.3     1  UNL1       -0.3909
     97 O           5.2780   40.4330   21.8620 O.3     1  UNL1       -0.3916
     98 O           6.1040   38.8950   19.9440 O.3     1  UNL1       -0.3916
     99 O           5.6070   37.3020   16.1460 O.3     1  UNL1       -0.3916
    100 O           7.7900   37.7400   14.7330 O.3     1  UNL1       -0.3916
    101 O          10.6610   39.5200   17.2840 O.3     1  UNL1       -0.3916
    102 O          11.5070   43.1990   14.2830 O.3     1  UNL1       -0.3874
@<TRIPOS>BOND
     1    58    89    1
     2    51    89    1
     3    89    29    1
     4    89    75    1
     5    24    74    1
     6    10   102    1
     7   102    74    1
     8    21    71    1
     9    74    75    1
    10    74    73    1
    11    75    76    2
    12   100    39    1
    13   100    70    1
    14    46    71    1
    15    71    70    1
    16    71    72    1
    17     8    77    1
    18    23    73    1
    19    73    72    1
    20    73    47    1
    21    45    69    1
    22    70    20    1
    23    70    69    1
    24    76    77    1
    25    76     9    1
    26    99    38    1
    27    99    68    1
    28    77    78    2
    29    72    22    1
    30    72   101    1
    31    69    68    1
    32    69    19    1
    33     6    80    1
    34    17    67    1
    35    68    67    1
    36    68    18    1
    37   101    40    1
    38    78    80    1
    39    78     7    1
    40    80    81    2
    41    67    44    1
    42    67    66    1
    43     3    82    1
    44    16    66    1
    45    81    82    1
    46    81     5    1
    47    66    65    1
    48    66    98    1
    49    82    83    2
    50    15    65    1
    51    65    43    1
    52    65    64    1
    53    98    37    1
    54     1    84    1
    55    83    84    1
    56    83     4    1
    57    84    85    2
    58    14    64    1
    59    64    97    1
    60    64    63    1
    61    13    63    1
    62    26    86    1
    63    97    36    1
    64    85    86    1
    65    85     2    1
    66    63    42    1
    67    63    62    1
    68    49    86    1
    69    86    87    1
    70    60    59    2
    71    12    62    1
    72    62    96    1
    73    62    61    1
    74    59    91    1
    75    59    61    1
    76    28    88    1
    77    87    91    1
    78    87    88    1
    79    87    27    1
    80    96    35    1
    81    50    88    1
    82    11    61    1
    83    61    79    1
    84    88    57    1
    85    79    25    1
    86    79    48    1
    87    79    90    1
    88    52    90    1
    89    30    90    1
    90    90    92    1
    91    92    31    1
    92    92    53    1
    93    92    93    1
    94    54    93    1
    95    93    32    1
    96    93    94    1
    97    33    94    1
    98    94    55    1
    99    94    95    1
   100    56    95    1
   101    95    41    1
   102    95    34    1
