@<TRIPOS>MOLECULE
50.86039
 102 102 0 0 0
SMALL
GASTEIGER

@<TRIPOS>ATOM
      1 H          -1.3940   45.2890   18.4080 H       1  UNL1        0.0614
      2 H          -0.8410   44.5340   21.3410 H       1  UNL1        0.0573
      3 H          -1.6870   42.3740   20.3360 H       1  UNL1        0.0618
      4 H          -3.6730   44.4880   19.3020 H       1  UNL1        0.0617
      5 H          -4.8010   42.3780   20.2480 H       1  UNL1        0.0618
      6 H          -2.6250   40.5510   21.4290 H       1  UNL1        0.0618
      7 H          -5.7340   40.3550   21.5000 H       1  UNL1        0.0618
      8 H          -3.4280   38.9810   23.0120 H       1  UNL1        0.0618
      9 H          -5.4670   38.7700   24.5040 H       1  UNL1        0.0618
     10 H          -8.9670   36.1310   24.1490 H       1  UNL1        0.2102
     11 H           1.9300   43.2280   24.5300 H       1  UNL1        0.0439
     12 H          -0.3190   42.6690   23.2820 H       1  UNL1        0.0602
     13 H           0.2450   41.9500   25.5950 H       1  UNL1        0.0315
     14 H          -1.8730   41.0120   24.4640 H       1  UNL1        0.0595
     15 H          -1.4860   40.6250   26.8590 H       1  UNL1        0.0315
     16 H          -3.3280   39.1820   25.7640 H       1  UNL1        0.0595
     17 H          -3.1680   39.2160   28.2000 H       1  UNL1        0.0315
     18 H          -3.0300   36.2350   27.4430 H       1  UNL1        0.0595
     19 H          -4.9420   37.2720   26.2580 H       1  UNL1        0.0315
     20 H          -5.2580   35.0230   27.5640 H       1  UNL1        0.0595
     21 H          -7.6040   36.8720   26.9160 H       1  UNL1        0.0315
     22 H          -6.8720   34.0070   26.0740 H       1  UNL1        0.0595
     23 H          -6.6240   34.7760   23.8150 H       1  UNL1        0.0318
     24 H          -7.3640   37.5470   24.8650 H       1  UNL1        0.0641
     25 H           3.1420   41.7090   22.1600 H       1  UNL1        0.0274
     26 H           0.7100   46.4260   21.1220 H       1  UNL1        0.0343
     27 H           1.8530   44.2130   19.3430 H       1  UNL1        0.0734
     28 H           3.2890   46.0930   21.2780 H       1  UNL1        0.0265
     29 H          -5.5140   37.3700   20.9940 H       1  UNL1        0.0275
     30 H           4.4350   43.1370   24.5380 H       1  UNL1        0.0265
     31 H           5.6000   41.8070   22.0330 H       1  UNL1        0.0265
     32 H           6.9870   43.2620   24.3470 H       1  UNL1        0.0265
     33 H           8.0990   41.9580   21.8030 H       1  UNL1        0.0263
     34 H          10.3070   42.5870   22.7200 H       1  UNL1        0.0230
     35 H           1.3160   40.5000   22.4310 H       1  UNL1        0.2098
     36 H          -0.6650   39.7520   22.9650 H       1  UNL1        0.2098
     37 H          -1.6290   37.9180   24.6620 H       1  UNL1        0.2098
     38 H          -2.6720   36.7390   29.6070 H       1  UNL1        0.2098
     39 H          -5.1960   36.2660   29.5770 H       1  UNL1        0.2098
     40 H          -8.7230   33.9750   25.0060 H       1  UNL1        0.2098
     41 H           9.5370   43.4090   24.0870 H       1  UNL1        0.0230
     42 H           1.1210   40.5530   24.9420 H       1  UNL1        0.0315
     43 H          -0.3600   39.3060   26.4970 H       1  UNL1        0.0315
     44 H          -1.7430   38.2150   28.1840 H       1  UNL1        0.0315
     45 H          -5.4580   38.0760   27.7480 H       1  UNL1        0.0315
     46 H          -7.9140   35.4360   27.8200 H       1  UNL1        0.0315
     47 H          -5.4910   35.6740   24.8210 H       1  UNL1        0.0318
     48 H           3.1670   41.1350   23.8260 H       1  UNL1        0.0274
     49 H           0.6960   46.3370   19.3730 H       1  UNL1        0.0343
     50 H           3.3040   46.1970   19.5080 H       1  UNL1        0.0265
     51 H          -7.2610   37.1820   21.1570 H       1  UNL1        0.0275
     52 H           4.3550   43.8070   22.9090 H       1  UNL1        0.0265
     53 H           5.7460   41.1950   23.6830 H       1  UNL1        0.0265
     54 H           6.8050   43.9070   22.7140 H       1  UNL1        0.0265
     55 H           8.2990   41.3310   23.4400 H       1  UNL1        0.0263
     56 H           9.3320   44.0390   22.4410 H       1  UNL1        0.0230
     57 H           4.0340   44.8060   20.3410 H       1  UNL1        0.0265
     58 H          -6.1650   35.8690   21.6370 H       1  UNL1        0.0275
     59 C           1.7180   44.0510   22.6190 C.2     1  UNL1        0.3130
     60 O           1.5630   45.1800   23.0630 O.2     1  UNL1       -0.2504
     61 C           1.8390   42.8240   23.5110 C.3     1  UNL1        0.0823
     62 C           0.5310   41.9960   23.4490 C.3     1  UNL1        0.0705
     63 C           0.2780   41.2330   24.7660 C.3     1  UNL1        0.0001
     64 C          -1.0180   40.3950   24.7630 C.3     1  UNL1        0.0600
     65 C          -1.2800   39.8040   26.1610 C.3     1  UNL1       -0.0006
     66 C          -2.4220   38.7690   26.2180 C.3     1  UNL1        0.0599
     67 C          -2.7030   38.3730   27.6730 C.3     1  UNL1       -0.0006
     68 C          -3.5360   37.1000   27.8870 C.3     1  UNL1        0.0599
     69 C          -4.9770   37.1760   27.3440 C.3     1  UNL1       -0.0006
     70 C          -5.8170   35.9460   27.7550 C.3     1  UNL1        0.0599
     71 C          -7.2050   35.8670   27.0980 C.3     1  UNL1       -0.0006
     72 C          -7.2760   34.9970   25.8330 C.3     1  UNL1        0.0602
     73 C          -6.5550   35.5440   24.5970 C.3     1  UNL1        0.0032
     74 C          -7.1770   36.8410   24.0490 C.3     1  UNL1        0.0786
     75 C          -6.2670   37.4990   23.0330 C.2     1  UNL1       -0.0445
     76 C          -5.4500   38.4810   23.4540 C.2     1  UNL1       -0.0604
     77 C          -4.4500   39.1800   22.6980 C.2     1  UNL1       -0.0617
     78 C          -4.7100   40.1110   21.7700 C.2     1  UNL1       -0.0618
     79 C           3.1310   42.0390   23.2060 C.3     1  UNL1       -0.0377
     80 C          -3.6360   40.8790   21.1900 C.2     1  UNL1       -0.0618
     81 C          -3.8080   41.9990   20.4730 C.2     1  UNL1       -0.0618
     82 C          -2.6640   42.7950   20.0960 C.2     1  UNL1       -0.0618
     83 C          -2.7260   44.0280   19.5710 C.2     1  UNL1       -0.0621
     84 C          -1.5320   44.8240   19.3800 C.2     1  UNL1       -0.0656
     85 C          -0.6390   44.9840   20.3700 C.2     1  UNL1       -0.0805
     86 C           0.6610   45.7240   20.2830 C.3     1  UNL1        0.0026
     87 C           1.8690   44.7640   20.2920 C.3     1  UNL1        0.1037
     88 C           3.1970   45.5120   20.3550 C.3     1  UNL1       -0.0274
     89 C          -6.3010   36.9560   21.6310 C.3     1  UNL1       -0.0411
     90 C           4.3930   42.8700   23.4750 C.3     1  UNL1       -0.0522
     91 O           1.8310   43.7280   21.3070 O.3     1  UNL1       -0.4611
     92 C           5.6630   42.1110   23.0850 C.3     1  UNL1       -0.0530
     93 C           6.9070   42.9790   23.2900 C.3     1  UNL1       -0.0533
     94 C           8.1780   42.2500   22.8560 C.3     1  UNL1       -0.0559
     95 C           9.4090   43.1250   23.0380 C.3     1  UNL1       -0.0653
     96 O           0.5210   41.0610   22.3660 O.3     1  UNL1       -0.3909
     97 O          -0.8990   39.3270   23.8200 O.3     1  UNL1       -0.3916
     98 O          -2.0530   37.6010   25.4900 O.3     1  UNL1       -0.3916
     99 O          -3.5910   36.8610   29.3040 O.3     1  UNL1       -0.3916
    100 O          -6.0510   36.0070   29.1690 O.3     1  UNL1       -0.3916
    101 O          -8.6600   34.8140   25.5010 O.3     1  UNL1       -0.3916
    102 O          -8.4410   36.5760   23.4520 O.3     1  UNL1       -0.3874
@<TRIPOS>BOND
     1     1    84    1
     2     4    83    1
     3    27    87    1
     4    49    86    1
     5    84    83    1
     6    84    85    2
     7    50    88    1
     8    83    82    2
     9    82     3    1
    10    82    81    1
    11     5    81    1
    12    86    87    1
    13    86    85    1
    14    86    26    1
    15    87    88    1
    16    87    91    1
    17    57    88    1
    18    88    28    1
    19    85     2    1
    20    81    80    2
    21    29    89    1
    22    51    89    1
    23    80     6    1
    24    80    78    1
    25    91    59    1
    26     7    78    1
    27    89    58    1
    28    89    75    1
    29    78    77    2
    30    33    94    1
    31    31    92    1
    32    25    79    1
    33    96    35    1
    34    96    62    1
    35    56    95    1
    36    59    60    2
    37    59    61    1
    38    77     8    1
    39    77    76    1
    40    54    93    1
    41    34    95    1
    42    94    95    1
    43    94    93    1
    44    94    55    1
    45    52    90    1
    46    36    97    1
    47    75    76    2
    48    75    74    1
    49    95    41    1
    50    92    93    1
    51    92    90    1
    52    92    53    1
    53    79    90    1
    54    79    61    1
    55    79    48    1
    56    12    62    1
    57    93    32    1
    58    62    61    1
    59    62    63    1
    60   102    74    1
    61   102    10    1
    62    76     9    1
    63    90    30    1
    64    61    11    1
    65    23    73    1
    66    97    64    1
    67    74    73    1
    68    74    24    1
    69    14    64    1
    70    73    47    1
    71    73    72    1
    72    37    98    1
    73    64    63    1
    74    64    65    1
    75    63    42    1
    76    63    13    1
    77    40   101    1
    78    98    66    1
    79   101    72    1
    80    16    66    1
    81    72    22    1
    82    72    71    1
    83    65    66    1
    84    65    43    1
    85    65    15    1
    86    66    67    1
    87    19    69    1
    88    21    71    1
    89    71    70    1
    90    71    46    1
    91    69    45    1
    92    69    70    1
    93    69    68    1
    94    18    68    1
    95    20    70    1
    96    67    68    1
    97    67    44    1
    98    67    17    1
    99    70   100    1
   100    68    99    1
   101   100    39    1
   102    99    38    1
