@<TRIPOS>MOLECULE
39.41811
 102 102 0 0 0
SMALL
GASTEIGER

@<TRIPOS>ATOM
      1 H          -2.3230   40.2080   20.5380 H       1  UNL1        0.0614
      2 H          -3.1260   43.1580   20.8460 H       1  UNL1        0.0573
      3 H          -3.0880   38.8390   22.3850 H       1  UNL1        0.0618
      4 H          -4.2040   41.7040   22.5180 H       1  UNL1        0.0617
      5 H          -5.0470   40.2610   24.3450 H       1  UNL1        0.0618
      6 H          -3.7220   37.4840   24.2940 H       1  UNL1        0.0618
      7 H          -5.7470   38.8370   26.2340 H       1  UNL1        0.0618
      8 H          -4.2760   36.1420   26.2280 H       1  UNL1        0.0618
      9 H          -6.4140   37.4280   28.0660 H       1  UNL1        0.0618
     10 H          -7.5190   34.2810   30.7780 H       1  UNL1        0.2102
     11 H           1.8410   42.7530   23.1310 H       1  UNL1        0.0439
     12 H          -0.6070   41.0520   23.8360 H       1  UNL1        0.0602
     13 H          -0.5590   43.4360   24.7320 H       1  UNL1        0.0315
     14 H          -1.5570   41.4460   26.0460 H       1  UNL1        0.0595
     15 H          -1.9930   43.7680   26.7400 H       1  UNL1        0.0315
     16 H          -0.9870   42.3540   29.2670 H       1  UNL1        0.0595
     17 H          -2.4600   40.7390   28.1130 H       1  UNL1        0.0315
     18 H          -2.7750   41.2430   30.6530 H       1  UNL1        0.0595
     19 H          -3.7410   39.2460   29.5580 H       1  UNL1        0.0315
     20 H          -4.4360   39.9180   31.9990 H       1  UNL1        0.0595
     21 H          -6.4850   38.3570   30.3440 H       1  UNL1        0.0315
     22 H          -4.1200   37.3000   30.4020 H       1  UNL1        0.0595
     23 H          -6.2200   35.8330   32.0920 H       1  UNL1        0.0318
     24 H          -7.1860   36.2590   29.8700 H       1  UNL1        0.0641
     25 H           2.5310   40.4770   22.6590 H       1  UNL1        0.0274
     26 H          -2.2210   42.9970   18.4630 H       1  UNL1        0.0343
     27 H           0.1770   43.4460   18.7540 H       1  UNL1        0.0734
     28 H          -1.5510   45.0240   20.7000 H       1  UNL1        0.0265
     29 H          -3.8210   34.6690   27.6540 H       1  UNL1        0.0275
     30 H           0.0050   40.2260   20.9480 H       1  UNL1        0.0265
     31 H           2.2980   38.2620   21.4170 H       1  UNL1        0.0265
     32 H          -0.2170   38.1150   19.6650 H       1  UNL1        0.0265
     33 H           2.0360   36.0840   20.1170 H       1  UNL1        0.0263
     34 H           0.8370   34.7430   18.4190 H       1  UNL1        0.0230
     35 H           2.0190   40.9380   24.9340 H       1  UNL1        0.2098
     36 H           0.4790   40.5410   26.5220 H       1  UNL1        0.2098
     37 H          -1.6190   44.5310   29.3800 H       1  UNL1        0.2098
     38 H          -3.8430   43.2650   30.0850 H       1  UNL1        0.2098
     39 H          -5.7500   41.6490   31.1000 H       1  UNL1        0.2098
     40 H          -3.4230   36.6090   32.4420 H       1  UNL1        0.2098
     41 H          -0.4530   35.9550   18.3310 H       1  UNL1        0.0230
     42 H           0.9870   43.0580   25.5040 H       1  UNL1        0.0315
     43 H          -0.4180   43.8940   27.4860 H       1  UNL1        0.0315
     44 H          -3.6660   42.0110   27.8300 H       1  UNL1        0.0315
     45 H          -5.1460   40.1900   29.0310 H       1  UNL1        0.0315
     46 H          -6.4390   38.4000   32.0910 H       1  UNL1        0.0315
     47 H          -4.8130   35.0960   31.4230 H       1  UNL1        0.0318
     48 H           2.2530   41.3350   21.1670 H       1  UNL1        0.0274
     49 H          -1.2800   41.5820   18.9260 H       1  UNL1        0.0343
     50 H          -1.1890   45.3730   19.0140 H       1  UNL1        0.0265
     51 H          -5.0090   33.5750   28.3530 H       1  UNL1        0.0275
     52 H           0.2980   39.3380   22.4400 H       1  UNL1        0.0265
     53 H           2.0380   39.1780   19.9280 H       1  UNL1        0.0265
     54 H           0.0420   37.1950   21.1480 H       1  UNL1        0.0265
     55 H           1.7930   37.0140   18.6360 H       1  UNL1        0.0263
     56 H          -0.2120   35.0200   19.8200 H       1  UNL1        0.0230
     57 H           0.0970   45.4480   20.2390 H       1  UNL1        0.0265
     58 H          -3.8540   34.4390   29.3880 H       1  UNL1        0.0275
     59 C           0.0720   42.8720   21.9740 C.2     1  UNL1        0.3130
     60 O          -0.8420   43.5380   22.4400 O.2     1  UNL1       -0.2504
     61 C           1.0450   42.0580   22.8330 C.3     1  UNL1        0.0823
     62 C           0.3360   41.5390   24.1130 C.3     1  UNL1        0.0705
     63 C           0.0360   42.6290   25.1630 C.3     1  UNL1        0.0001
     64 C          -0.7140   42.0610   26.3830 C.3     1  UNL1        0.0600
     65 C          -1.2330   43.1870   27.2800 C.3     1  UNL1       -0.0006
     66 C          -1.7970   42.7330   28.6330 C.3     1  UNL1        0.0599
     67 C          -2.8920   41.6590   28.5230 C.3     1  UNL1       -0.0006
     68 C          -3.5450   41.3610   29.8820 C.3     1  UNL1        0.0599
     69 C          -4.3950   40.0820   29.8250 C.3     1  UNL1       -0.0006
     70 C          -5.1230   39.8090   31.1530 C.3     1  UNL1        0.0599
     71 C          -5.8020   38.4340   31.1960 C.3     1  UNL1       -0.0006
     72 C          -4.8260   37.2520   31.2350 C.3     1  UNL1        0.0602
     73 C          -5.5420   35.8940   31.2290 C.3     1  UNL1        0.0032
     74 C          -6.3280   35.5810   29.9470 C.3     1  UNL1        0.0786
     75 C          -5.4900   35.6460   28.6800 C.2     1  UNL1       -0.0445
     76 C          -5.6630   36.6740   27.8230 C.2     1  UNL1       -0.0604
     77 C          -4.9480   36.9140   26.5900 C.2     1  UNL1       -0.0617
     78 C          -5.0820   38.0490   25.8850 C.2     1  UNL1       -0.0618
     79 C           1.7380   40.9160   22.0410 C.3     1  UNL1       -0.0377
     80 C          -4.3570   38.2910   24.6580 C.2     1  UNL1       -0.0618
     81 C          -4.4250   39.4460   23.9800 C.2     1  UNL1       -0.0618
     82 C          -3.6730   39.6750   22.7670 C.2     1  UNL1       -0.0618
     83 C          -3.6440   40.8550   22.1310 C.2     1  UNL1       -0.0621
     84 C          -2.8320   41.0740   20.9560 C.2     1  UNL1       -0.0656
     85 C          -2.6320   42.2870   20.4200 C.2     1  UNL1       -0.0805
     86 C          -1.6670   42.5420   19.2930 C.3     1  UNL1        0.0026
     87 C          -0.4570   43.4350   19.6500 C.3     1  UNL1        0.1037
     88 C          -0.7960   44.9000   19.9200 C.3     1  UNL1       -0.0274
     89 C          -4.4920   34.5280   28.5030 C.3     1  UNL1       -0.0411
     90 C           0.7900   39.8030   21.5790 C.3     1  UNL1       -0.0522
     91 O           0.3950   42.8240   20.6540 O.3     1  UNL1       -0.4611
     92 C           1.5280   38.7220   20.7860 C.3     1  UNL1       -0.0530
     93 C           0.5550   37.6500   20.2910 C.3     1  UNL1       -0.0533
     94 C           1.2750   36.5650   19.4910 C.3     1  UNL1       -0.0559
     95 C           0.3020   35.5100   18.9870 C.3     1  UNL1       -0.0653
     96 O           1.1460   40.5390   24.7580 O.3     1  UNL1       -0.3909
     97 O           0.1620   41.2320   27.1430 O.3     1  UNL1       -0.3916
     98 O          -2.3440   43.8830   29.2970 O.3     1  UNL1       -0.3916
     99 O          -4.3790   42.4590   30.2660 O.3     1  UNL1       -0.3916
    100 O          -6.1630   40.7830   31.3170 O.3     1  UNL1       -0.3916
    101 O          -4.0530   37.3490   32.4340 O.3     1  UNL1       -0.3916
    102 O          -6.8730   34.2660   30.0510 O.3     1  UNL1       -0.3874
@<TRIPOS>BOND
     1    41    95    1
     2    34    95    1
     3    26    86    1
     4    55    94    1
     5    27    87    1
     6    49    86    1
     7    95    94    1
     8    95    56    1
     9    50    88    1
    10    86    87    1
    11    86    85    1
    12    94    33    1
    13    94    93    1
    14    87    88    1
    15    87    91    1
    16    32    93    1
    17    88    57    1
    18    88    28    1
    19    53    92    1
    20    93    92    1
    21    93    54    1
    22    85     2    1
    23    85    84    2
    24     1    84    1
    25    91    59    1
    26    92    31    1
    27    92    90    1
    28    30    90    1
    29    84    83    1
    30    48    79    1
    31    90    79    1
    32    90    52    1
    33    59    60    2
    34    59    61    1
    35    79    25    1
    36    79    61    1
    37    83     4    1
    38    83    82    2
    39     3    82    1
    40    82    81    1
    41    61    11    1
    42    61    62    1
    43    12    62    1
    44    81     5    1
    45    81    80    2
    46    62    96    1
    47    62    63    1
    48     6    80    1
    49    80    78    1
    50    13    63    1
    51    96    35    1
    52    63    42    1
    53    63    64    1
    54    78     7    1
    55    78    77    2
    56    14    64    1
    57     8    77    1
    58    64    97    1
    59    64    65    1
    60    36    97    1
    61    77    76    1
    62    15    65    1
    63    65    43    1
    64    65    66    1
    65    29    89    1
    66    76     9    1
    67    76    75    2
    68    44    67    1
    69    17    67    1
    70    51    89    1
    71    89    75    1
    72    89    58    1
    73    67    66    1
    74    67    68    1
    75    66    16    1
    76    66    98    1
    77    75    74    1
    78    45    69    1
    79    98    37    1
    80    19    69    1
    81    69    68    1
    82    69    70    1
    83    24    74    1
    84    68    99    1
    85    68    18    1
    86    74   102    1
    87    74    73    1
    88   102    10    1
    89    38    99    1
    90    21    71    1
    91    22    72    1
    92    39   100    1
    93    70    71    1
    94    70   100    1
    95    70    20    1
    96    71    72    1
    97    71    46    1
    98    73    72    1
    99    73    47    1
   100    73    23    1
   101    72   101    1
   102   101    40    1
