@<TRIPOS>MOLECULE
48.87237
 102 102 0 0 0
SMALL
GASTEIGER

@<TRIPOS>ATOM
      1 H           1.4970   45.7690   22.5740 H       1  UNL1        0.0614
      2 H           4.0300   44.8680   24.0610 H       1  UNL1        0.0573
      3 H           0.4160   47.6550   23.7620 H       1  UNL1        0.0618
      4 H           3.0680   46.7940   25.0590 H       1  UNL1        0.0617
      5 H           2.0220   48.5990   26.2600 H       1  UNL1        0.0618
      6 H          -0.7000   49.4270   25.0920 H       1  UNL1        0.0618
      7 H           0.9290   50.2770   27.6080 H       1  UNL1        0.0618
      8 H          -1.8490   51.0380   26.5520 H       1  UNL1        0.0618
      9 H          -0.1730   51.7970   29.0520 H       1  UNL1        0.0618
     10 H          -2.2950   54.9360   31.0170 H       1  UNL1        0.2102
     11 H           1.8970   41.7260   23.4480 H       1  UNL1        0.0439
     12 H          -0.7200   41.7030   25.0180 H       1  UNL1        0.0602
     13 H           0.3360   43.9940   24.8060 H       1  UNL1        0.0315
     14 H          -0.8840   43.2280   26.9310 H       1  UNL1        0.0595
     15 H          -0.1660   45.5760   26.5730 H       1  UNL1        0.0315
     16 H          -1.0770   44.8420   28.8860 H       1  UNL1        0.0595
     17 H          -0.8020   47.2280   28.2710 H       1  UNL1        0.0315
     18 H          -1.3450   46.6100   30.7260 H       1  UNL1        0.0595
     19 H          -1.4910   48.9280   29.8780 H       1  UNL1        0.0315
     20 H          -1.6820   48.5150   32.4480 H       1  UNL1        0.0595
     21 H          -0.4960   51.1800   31.5090 H       1  UNL1        0.0315
     22 H          -2.8520   50.4380   30.5510 H       1  UNL1        0.0595
     23 H          -2.7660   52.9420   32.3250 H       1  UNL1        0.0318
     24 H          -1.0190   53.1820   30.6280 H       1  UNL1        0.0641
     25 H           1.2520   39.4950   23.3930 H       1  UNL1        0.0274
     26 H           3.5350   42.7650   23.0110 H       1  UNL1        0.0343
     27 H           2.3530   44.1730   20.5910 H       1  UNL1        0.0734
     28 H           2.6720   41.2170   21.2300 H       1  UNL1        0.0265
     29 H          -3.4910   52.1690   27.2220 H       1  UNL1        0.0275
     30 H          -1.6240   40.3310   22.7490 H       1  UNL1        0.0265
     31 H          -0.3180   37.5700   22.9580 H       1  UNL1        0.0265
     32 H          -3.1990   38.4120   22.3320 H       1  UNL1        0.0265
     33 H          -1.9060   35.6390   22.5500 H       1  UNL1        0.0263
     34 H          -4.1340   34.8070   21.8730 H       1  UNL1        0.0230
     35 H           1.9330   40.8730   25.6520 H       1  UNL1        0.2098
     36 H           0.7770   41.7220   27.4880 H       1  UNL1        0.2098
     37 H           0.9860   43.7280   29.2970 H       1  UNL1        0.2098
     38 H           0.8950   45.8440   30.9830 H       1  UNL1        0.2098
     39 H           0.6420   48.0630   32.4960 H       1  UNL1        0.2098
     40 H          -4.5130   50.6020   32.0830 H       1  UNL1        0.2098
     41 H          -4.7860   36.4540   21.8890 H       1  UNL1        0.0230
     42 H           1.8240   43.3110   25.5010 H       1  UNL1        0.0315
     43 H           1.4500   45.1880   27.1980 H       1  UNL1        0.0315
     44 H           0.9110   47.1630   28.7320 H       1  UNL1        0.0315
     45 H           0.2430   49.1610   30.1540 H       1  UNL1        0.0315
     46 H          -1.2020   50.9340   33.0900 H       1  UNL1        0.0315
     47 H          -3.9830   52.6190   31.1450 H       1  UNL1        0.0318
     48 H           0.7330   40.1650   21.8550 H       1  UNL1        0.0274
     49 H           4.3410   43.7630   21.8420 H       1  UNL1        0.0343
     50 H           3.4790   42.1490   19.9710 H       1  UNL1        0.0265
     51 H          -3.7140   53.6930   28.0600 H       1  UNL1        0.0275
     52 H          -1.0790   39.5660   24.2450 H       1  UNL1        0.0265
     53 H          -0.8530   38.3290   21.4560 H       1  UNL1        0.0265
     54 H          -2.6660   37.6530   23.8340 H       1  UNL1        0.0265
     55 H          -2.4310   36.3980   21.0450 H       1  UNL1        0.0263
     56 H          -4.2580   35.6930   23.4030 H       1  UNL1        0.0230
     57 H           1.7290   41.8460   19.8780 H       1  UNL1        0.0265
     58 H          -4.2680   52.1760   28.7980 H       1  UNL1        0.0275
     59 C           0.1640   42.6480   22.5880 C.2     1  UNL1        0.3130
     60 O          -1.0500   42.8410   22.6370 O.2     1  UNL1       -0.2504
     61 C           0.8170   41.6080   23.4700 C.3     1  UNL1        0.0823
     62 C           0.3660   41.8280   24.9330 C.3     1  UNL1        0.0705
     63 C           0.7310   43.2220   25.4740 C.3     1  UNL1        0.0001
     64 C           0.1840   43.4720   26.8880 C.3     1  UNL1        0.0600
     65 C           0.3830   44.9430   27.2800 C.3     1  UNL1       -0.0006
     66 C          -0.0740   45.2470   28.7140 C.3     1  UNL1        0.0599
     67 C          -0.0870   46.7630   28.9590 C.3     1  UNL1       -0.0006
     68 C          -0.4370   47.1350   30.4080 C.3     1  UNL1        0.0599
     69 C          -0.6550   48.6520   30.5270 C.3     1  UNL1       -0.0006
     70 C          -0.9050   49.1220   31.9710 C.3     1  UNL1        0.0599
     71 C          -1.2680   50.6140   32.0420 C.3     1  UNL1       -0.0006
     72 C          -2.6680   50.9370   31.5060 C.3     1  UNL1        0.0602
     73 C          -2.9190   52.4450   31.3560 C.3     1  UNL1        0.0032
     74 C          -2.0600   53.1440   30.2890 C.3     1  UNL1        0.0786
     75 C          -2.1440   52.4950   28.9150 C.2     1  UNL1       -0.0445
     76 C          -1.0780   51.8180   28.4410 C.2     1  UNL1       -0.0604
     77 C          -0.9970   51.0430   27.2230 C.2     1  UNL1       -0.0617
     78 C           0.0750   50.2890   26.9320 C.2     1  UNL1       -0.0618
     79 C           0.5350   40.1870   22.9330 C.3     1  UNL1       -0.0377
     80 C           0.1470   49.4240   25.7750 C.2     1  UNL1       -0.0618
     81 C           1.1870   48.6030   25.5620 C.2     1  UNL1       -0.0618
     82 C           1.2470   47.6620   24.4650 C.2     1  UNL1       -0.0618
     83 C           2.2530   46.7850   24.3360 C.2     1  UNL1       -0.0621
     84 C           2.2970   45.7660   23.3110 C.2     1  UNL1       -0.0656
     85 C           3.2500   44.8230   23.3000 C.2     1  UNL1       -0.0805
     86 C           3.3890   43.6440   22.3760 C.3     1  UNL1        0.0026
     87 C           2.2970   43.3600   21.3270 C.3     1  UNL1        0.1037
     88 C           2.5580   42.0700   20.5570 C.3     1  UNL1       -0.0274
     89 C          -3.4690   52.6360   28.2080 C.3     1  UNL1       -0.0411
     90 C          -0.8810   39.6460   23.1710 C.3     1  UNL1       -0.0522
     91 O           0.9180   43.4260   21.7900 O.3     1  UNL1       -0.4611
     92 C          -1.0530   38.2640   22.5330 C.3     1  UNL1       -0.0530
     93 C          -2.4640   37.7180   22.7580 C.3     1  UNL1       -0.0533
     94 C          -2.6330   36.3390   22.1210 C.3     1  UNL1       -0.0559
     95 C          -4.0360   35.7940   22.3360 C.3     1  UNL1       -0.0653
     96 O           0.9670   40.8430   25.7870 O.3     1  UNL1       -0.3909
     97 O           0.8600   42.6390   27.8310 O.3     1  UNL1       -0.3916
     98 O           0.8120   44.6310   29.6510 O.3     1  UNL1       -0.3916
     99 O           0.6230   46.7430   31.2830 O.3     1  UNL1       -0.3916
    100 O           0.3020   48.9570   32.7250 O.3     1  UNL1       -0.3916
    101 O          -3.6240   50.4060   32.4280 O.3     1  UNL1       -0.3916
    102 O          -2.4850   54.5000   30.1680 O.3     1  UNL1       -0.3874
@<TRIPOS>BOND
     1    57    88    1
     2    50    88    1
     3    88    28    1
     4    88    87    1
     5    27    87    1
     6    55    94    1
     7    87    91    1
     8    87    86    1
     9    53    92    1
    10    91    59    1
    11    49    86    1
    12    48    79    1
    13    34    95    1
    14    41    95    1
    15    94    95    1
    16    94    33    1
    17    94    93    1
    18    32    93    1
    19    95    56    1
    20    86    26    1
    21    86    85    1
    22    92    93    1
    23    92    31    1
    24    92    90    1
    25     1    84    1
    26    59    60    2
    27    59    61    1
    28    30    90    1
    29    93    54    1
    30    79    90    1
    31    79    25    1
    32    79    61    1
    33    90    52    1
    34    85    84    2
    35    85     2    1
    36    84    83    1
    37    11    61    1
    38    61    62    1
    39     3    82    1
    40    83    82    2
    41    83     4    1
    42    82    81    1
    43    13    63    1
    44    62    12    1
    45    62    63    1
    46    62    96    1
    47     6    80    1
    48    63    42    1
    49    63    64    1
    50    81    80    2
    51    81     5    1
    52    35    96    1
    53    80    78    1
    54     8    77    1
    55    15    65    1
    56    64    14    1
    57    64    65    1
    58    64    97    1
    59    78    77    2
    60    78     7    1
    61    43    65    1
    62    29    89    1
    63    77    76    1
    64    65    66    1
    65    36    97    1
    66    51    89    1
    67    89    58    1
    68    89    75    1
    69    17    67    1
    70    76    75    2
    71    76     9    1
    72    66    16    1
    73    66    67    1
    74    66    98    1
    75    44    67    1
    76    75    74    1
    77    67    68    1
    78    37    98    1
    79    19    69    1
    80    45    69    1
    81   102    74    1
    82   102    10    1
    83    74    24    1
    84    74    73    1
    85    68    69    1
    86    68    18    1
    87    68    99    1
    88    69    70    1
    89    22    72    1
    90    38    99    1
    91    47    73    1
    92    73    72    1
    93    73    23    1
    94    72    71    1
    95    72   101    1
    96    21    71    1
    97    70    71    1
    98    70    20    1
    99    70   100    1
   100    71    46    1
   101    40   101    1
   102    39   100    1
