@<TRIPOS>MOLECULE
36.09710
 102 102 0 0 0
SMALL
GASTEIGER

@<TRIPOS>ATOM
      1 H          -2.0790   43.8900   21.0540 H       1  UNL1        0.0614
      2 H          -1.9780   45.3650   23.7490 H       1  UNL1        0.0573
      3 H          -3.9960   42.4330   20.8230 H       1  UNL1        0.0618
      4 H          -3.9230   43.8270   23.5650 H       1  UNL1        0.0617
      5 H          -5.8420   42.2970   23.3270 H       1  UNL1        0.0618
      6 H          -5.8600   40.8840   20.5930 H       1  UNL1        0.0618
      7 H          -7.6930   40.7130   23.1030 H       1  UNL1        0.0618
      8 H          -7.5940   39.1810   20.4450 H       1  UNL1        0.0618
      9 H          -9.4020   39.0550   22.9620 H       1  UNL1        0.0618
     10 H         -12.4140   36.1100   22.0800 H       1  UNL1        0.2102
     11 H           2.2540   41.9640   23.8760 H       1  UNL1        0.0439
     12 H          -0.4890   41.0440   22.8400 H       1  UNL1        0.0602
     13 H          -0.7430   42.6910   24.6240 H       1  UNL1        0.0315
     14 H          -0.7360   39.9610   26.0300 H       1  UNL1        0.0595
     15 H          -2.3410   40.0430   24.0490 H       1  UNL1        0.0315
     16 H          -2.9200   38.7750   26.1790 H       1  UNL1        0.0595
     17 H          -4.4740   38.7680   24.1780 H       1  UNL1        0.0315
     18 H          -5.0940   37.4600   26.2690 H       1  UNL1        0.0595
     19 H          -6.5560   37.4390   24.2250 H       1  UNL1        0.0315
     20 H          -7.3070   36.0990   26.2660 H       1  UNL1        0.0595
     21 H          -9.6200   37.5150   24.8460 H       1  UNL1        0.0315
     22 H          -8.0090   36.1750   23.2680 H       1  UNL1        0.0595
     23 H         -10.8470   35.0600   23.6150 H       1  UNL1        0.0318
     24 H         -11.0290   37.4640   23.1190 H       1  UNL1        0.0641
     25 H           1.7170   40.7830   21.1120 H       1  UNL1        0.0274
     26 H          -0.5900   46.7760   22.1150 H       1  UNL1        0.0343
     27 H           1.7310   45.7210   22.3860 H       1  UNL1        0.0734
     28 H           0.1100   45.9610   24.9700 H       1  UNL1        0.0265
     29 H          -8.4290   37.4250   19.6590 H       1  UNL1        0.0275
     30 H           4.2790   41.6360   22.5750 H       1  UNL1        0.0265
     31 H           3.8600   40.4410   19.7840 H       1  UNL1        0.0265
     32 H           6.4000   41.3550   21.2390 H       1  UNL1        0.0265
     33 H           5.9990   40.1160   18.4620 H       1  UNL1        0.0263
     34 H           8.4680   40.2200   18.3180 H       1  UNL1        0.0230
     35 H           1.3910   39.6910   24.4980 H       1  UNL1        0.2098
     36 H          -0.7000   41.8260   27.3560 H       1  UNL1        0.2098
     37 H          -3.1040   40.9600   27.2950 H       1  UNL1        0.2098
     38 H          -5.3590   39.6050   27.4200 H       1  UNL1        0.2098
     39 H          -7.6010   38.2140   27.4370 H       1  UNL1        0.2098
     40 H          -8.1510   33.9270   23.5290 H       1  UNL1        0.2098
     41 H           8.5510   41.0420   19.8860 H       1  UNL1        0.0230
     42 H           0.5830   42.0090   25.5300 H       1  UNL1        0.0315
     43 H          -3.0680   41.4920   24.7760 H       1  UNL1        0.0315
     44 H          -5.3020   40.1770   24.8720 H       1  UNL1        0.0315
     45 H          -7.4490   38.8270   24.8770 H       1  UNL1        0.0315
     46 H          -9.7650   36.0480   25.7820 H       1  UNL1        0.0315
     47 H          -9.8440   34.7750   22.2400 H       1  UNL1        0.0318
     48 H           2.4880   39.9050   22.4280 H       1  UNL1        0.0274
     49 H          -0.2760   45.3550   21.1580 H       1  UNL1        0.0343
     50 H           0.8000   47.3300   24.0640 H       1  UNL1        0.0265
     51 H         -10.0760   36.8300   19.5490 H       1  UNL1        0.0275
     52 H           3.5700   42.4900   21.2050 H       1  UNL1        0.0265
     53 H           4.5990   39.6070   21.1540 H       1  UNL1        0.0265
     54 H           5.6630   42.1750   19.8610 H       1  UNL1        0.0265
     55 H           6.7470   39.3060   19.8410 H       1  UNL1        0.0263
     56 H           7.8000   41.8520   18.4970 H       1  UNL1        0.0230
     57 H           1.8500   46.1030   24.8020 H       1  UNL1        0.0265
     58 H          -8.8310   35.8770   20.3850 H       1  UNL1        0.0275
     59 C           1.1810   43.1150   22.4280 C.2     1  UNL1        0.3130
     60 O           1.0730   43.3260   21.2290 O.2     1  UNL1       -0.2504
     61 C           1.5530   41.7760   23.0510 C.3     1  UNL1        0.0823
     62 C           0.2940   41.0670   23.6070 C.3     1  UNL1        0.0705
     63 C          -0.2580   41.7410   24.8760 C.3     1  UNL1        0.0001
     64 C          -1.2250   40.8880   25.7110 C.3     1  UNL1        0.0600
     65 C          -2.5440   40.5550   24.9960 C.3     1  UNL1       -0.0006
     66 C          -3.4630   39.6750   25.8660 C.3     1  UNL1        0.0599
     67 C          -4.7400   39.2670   25.1170 C.3     1  UNL1       -0.0006
     68 C          -5.6520   38.3490   25.9540 C.3     1  UNL1        0.0599
     69 C          -6.8910   37.9220   25.1480 C.3     1  UNL1       -0.0006
     70 C          -7.8430   36.9930   25.9270 C.3     1  UNL1        0.0599
     71 C          -9.0860   36.5970   25.1140 C.3     1  UNL1       -0.0006
     72 C          -8.8050   35.7410   23.8770 C.3     1  UNL1        0.0602
     73 C         -10.0580   35.5280   23.0110 C.3     1  UNL1        0.0032
     74 C         -10.6140   36.8020   22.3500 C.3     1  UNL1        0.0786
     75 C          -9.5820   37.5470   21.5160 C.2     1  UNL1       -0.0445
     76 C          -9.0410   38.6830   22.0020 C.2     1  UNL1       -0.0604
     77 C          -7.9580   39.4520   21.4300 C.2     1  UNL1       -0.0617
     78 C          -7.3510   40.4410   22.1060 C.2     1  UNL1       -0.0618
     79 C           2.3180   40.9090   22.0210 C.3     1  UNL1       -0.0377
     80 C          -6.1950   41.1420   21.5960 C.2     1  UNL1       -0.0618
     81 C          -5.5150   42.0440   22.3200 C.2     1  UNL1       -0.0618
     82 C          -4.3190   42.6910   21.8300 C.2     1  UNL1       -0.0618
     83 C          -3.6060   43.5620   22.5590 C.2     1  UNL1       -0.0621
     84 C          -2.4000   44.1750   22.0560 C.2     1  UNL1       -0.0656
     85 C          -1.6710   45.0600   22.7520 C.2     1  UNL1       -0.0805
     86 C          -0.4250   45.6930   22.1900 C.3     1  UNL1        0.0026
     87 C           0.8650   45.4310   22.9950 C.3     1  UNL1        0.1037
     88 C           0.9020   46.2610   24.2770 C.3     1  UNL1       -0.0274
     89 C          -9.2050   36.8910   20.2110 C.3     1  UNL1       -0.0411
     90 C           3.6890   41.5000   21.6610 C.3     1  UNL1       -0.0522
     91 O           1.0440   44.0560   23.4020 O.3     1  UNL1       -0.4611
     92 C           4.4530   40.5920   20.6940 C.3     1  UNL1       -0.0530
     93 C           5.8110   41.1940   20.3280 C.3     1  UNL1       -0.0533
     94 C           6.5850   40.2840   19.3740 C.3     1  UNL1       -0.0559
     95 C           7.9290   40.8870   18.9990 C.3     1  UNL1       -0.0653
     96 O           0.6000   39.7050   23.9300 O.3     1  UNL1       -0.3909
     97 O          -1.5410   41.6140   26.9100 O.3     1  UNL1       -0.3916
     98 O          -3.8570   40.3730   27.0530 O.3     1  UNL1       -0.3916
     99 O          -6.0990   39.0190   27.1360 O.3     1  UNL1       -0.3916
    100 O          -8.3410   37.6670   27.0900 O.3     1  UNL1       -0.3916
    101 O          -8.3300   34.4670   24.3190 O.3     1  UNL1       -0.3916
    102 O         -11.7070   36.4470   21.5050 O.3     1  UNL1       -0.3874
@<TRIPOS>BOND
     1    34    95    1
     2    33    94    1
     3    56    95    1
     4    95    94    1
     5    95    41    1
     6    94    55    1
     7    94    93    1
     8    51    89    1
     9    29    89    1
    10    31    92    1
    11    54    93    1
    12    89    58    1
    13    89    75    1
    14    93    92    1
    15    93    32    1
    16     8    77    1
    17     6    80    1
    18    92    53    1
    19    92    90    1
    20     3    82    1
    21     1    84    1
    22    25    79    1
    23    49    86    1
    24    52    90    1
    25    60    59    2
    26    77    76    1
    27    77    78    2
    28   102    10    1
    29   102    74    1
    30    75    76    2
    31    75    74    1
    32    80    78    1
    33    80    81    2
    34    90    79    1
    35    90    30    1
    36    82    81    1
    37    82    83    2
    38    76     9    1
    39    79    48    1
    40    79    61    1
    41    84    83    1
    42    84    85    2
    43    78     7    1
    44    26    86    1
    45    86    85    1
    46    86    87    1
    47    47    73    1
    48    81     5    1
    49    74    73    1
    50    74    24    1
    51    27    87    1
    52    59    61    1
    53    59    91    1
    54    83     4    1
    55    85     2    1
    56    12    62    1
    57    87    91    1
    58    87    88    1
    59    73    23    1
    60    73    72    1
    61    61    62    1
    62    61    11    1
    63    22    72    1
    64    40   101    1
    65    62    96    1
    66    62    63    1
    67    72   101    1
    68    72    71    1
    69    96    35    1
    70    15    65    1
    71    50    88    1
    72    17    67    1
    73    19    69    1
    74    88    57    1
    75    88    28    1
    76    13    63    1
    77    43    65    1
    78    21    71    1
    79    44    67    1
    80    63    42    1
    81    63    64    1
    82    45    69    1
    83    65    64    1
    84    65    66    1
    85    71    46    1
    86    71    70    1
    87    67    66    1
    88    67    68    1
    89    69    70    1
    90    69    68    1
    91    64    14    1
    92    64    97    1
    93    66    16    1
    94    66    98    1
    95    70    20    1
    96    70   100    1
    97    68    18    1
    98    68    99    1
    99    97    36    1
   100    98    37    1
   101   100    39    1
   102    99    38    1
