@<TRIPOS>MOLECULE
34.17838
 102 102 0 0 0
SMALL
GASTEIGER

@<TRIPOS>ATOM
      1 H           2.4340   44.6140   19.1530 H       1  UNL1        0.0614
      2 H           3.8610   45.7940   21.6050 H       1  UNL1        0.0573
      3 H           3.9860   44.0510   17.3730 H       1  UNL1        0.0618
      4 H           5.4280   44.7030   20.0100 H       1  UNL1        0.0617
      5 H           6.9570   43.7810   18.2650 H       1  UNL1        0.0618
      6 H           5.5120   43.5970   15.5550 H       1  UNL1        0.0618
      7 H           8.4340   42.9740   16.4290 H       1  UNL1        0.0618
      8 H           6.9840   43.0820   13.7270 H       1  UNL1        0.0618
      9 H           9.7940   42.1070   14.6110 H       1  UNL1        0.0618
     10 H          12.4640   41.7610   12.2270 H       1  UNL1        0.2102
     11 H           1.0630   41.0650   23.2970 H       1  UNL1        0.0439
     12 H           3.7870   42.4320   22.9360 H       1  UNL1        0.0602
     13 H           2.5160   41.8250   20.8200 H       1  UNL1        0.0315
     14 H           5.0400   41.7020   20.8560 H       1  UNL1        0.0595
     15 H           3.8100   41.1280   18.7510 H       1  UNL1        0.0315
     16 H           6.3590   40.8430   18.8670 H       1  UNL1        0.0595
     17 H           5.1230   40.5350   16.6960 H       1  UNL1        0.0315
     18 H           7.6530   40.1310   16.8750 H       1  UNL1        0.0595
     19 H           6.4360   40.0920   14.6510 H       1  UNL1        0.0315
     20 H           8.9620   39.6870   14.9100 H       1  UNL1        0.0595
     21 H           7.7560   39.9200   12.6260 H       1  UNL1        0.0315
     22 H          10.0460   37.8990   12.5710 H       1  UNL1        0.0595
     23 H          11.6800   39.5650   12.3710 H       1  UNL1        0.0318
     24 H          10.6320   41.3240   11.0840 H       1  UNL1        0.0641
     25 H           2.5420   42.8000   25.3400 H       1  UNL1        0.0274
     26 H           0.9030   45.2580   20.8660 H       1  UNL1        0.0343
     27 H           2.1350   46.2420   23.4870 H       1  UNL1        0.0734
     28 H          -0.7110   45.2900   22.9150 H       1  UNL1        0.0265
     29 H           7.5260   43.0380   11.6910 H       1  UNL1        0.0275
     30 H          -0.2150   41.4600   25.4600 H       1  UNL1        0.0265
     31 H           1.3130   43.1980   27.4720 H       1  UNL1        0.0265
     32 H          -1.4420   41.8690   27.6570 H       1  UNL1        0.0265
     33 H           0.1030   43.6270   29.6400 H       1  UNL1        0.0263
     34 H          -1.8060   43.2000   31.1510 H       1  UNL1        0.0230
     35 H           3.1820   39.7630   23.7120 H       1  UNL1        0.2098
     36 H           5.0320   40.0100   22.4840 H       1  UNL1        0.2098
     37 H           6.0230   38.9610   20.3310 H       1  UNL1        0.2098
     38 H           7.1830   38.1200   18.1130 H       1  UNL1        0.2098
     39 H           8.4700   37.5230   15.8120 H       1  UNL1        0.2098
     40 H          10.1810   38.3650   10.5240 H       1  UNL1        0.2098
     41 H          -2.6470   42.2950   29.8810 H       1  UNL1        0.0230
     42 H           2.4550   40.1500   21.4010 H       1  UNL1        0.0315
     43 H           3.6730   39.4460   19.3000 H       1  UNL1        0.0315
     44 H           4.9000   38.8180   17.0900 H       1  UNL1        0.0315
     45 H           6.2290   38.3370   14.8400 H       1  UNL1        0.0315
     46 H           7.6520   38.1890   12.5780 H       1  UNL1        0.0315
     47 H          10.8340   39.9580   13.8280 H       1  UNL1        0.0318
     48 H           2.2360   41.0760   25.4840 H       1  UNL1        0.0274
     49 H           1.4570   46.8820   21.2440 H       1  UNL1        0.0343
     50 H          -0.1940   46.9510   23.2460 H       1  UNL1        0.0265
     51 H           8.0720   41.5620   10.8940 H       1  UNL1        0.0275
     52 H           0.0420   43.1990   25.3140 H       1  UNL1        0.0265
     53 H           1.0270   41.4640   27.6350 H       1  UNL1        0.0265
     54 H          -1.1640   43.6020   27.4750 H       1  UNL1        0.0265
     55 H          -0.1770   41.8940   29.8240 H       1  UNL1        0.0263
     56 H          -2.3650   44.0370   29.6930 H       1  UNL1        0.0230
     57 H          -0.0580   45.6950   24.4970 H       1  UNL1        0.0265
     58 H           8.9730   43.0780   10.7000 H       1  UNL1        0.0275
     59 C           1.2220   43.1460   22.8840 C.2     1  UNL1        0.3130
     60 O           0.3470   43.1460   22.0310 O.2     1  UNL1       -0.2504
     61 C           1.7660   41.8790   23.5200 C.3     1  UNL1        0.0823
     62 C           3.1360   41.5510   22.8920 C.3     1  UNL1        0.0705
     63 C           3.0400   41.0780   21.4260 C.3     1  UNL1        0.0001
     64 C           4.4220   40.7990   20.8040 C.3     1  UNL1        0.0600
     65 C           4.3020   40.3440   19.3380 C.3     1  UNL1       -0.0006
     66 C           5.6700   40.0030   18.7210 C.3     1  UNL1        0.0599
     67 C           5.5640   39.6810   17.2220 C.3     1  UNL1       -0.0006
     68 C           6.9370   39.3420   16.6160 C.3     1  UNL1        0.0599
     69 C           6.8740   39.1890   15.0890 C.3     1  UNL1       -0.0006
     70 C           8.2750   38.9440   14.4980 C.3     1  UNL1        0.0599
     71 C           8.2630   39.0140   12.9690 C.3     1  UNL1       -0.0006
     72 C           9.6540   38.8950   12.3270 C.3     1  UNL1        0.0602
     73 C          10.7100   39.9320   12.7400 C.3     1  UNL1        0.0032
     74 C          10.5550   41.3600   12.1770 C.3     1  UNL1        0.0786
     75 C           9.2960   42.1020   12.5800 C.2     1  UNL1       -0.0445
     76 C           9.0350   42.3750   13.8750 C.2     1  UNL1       -0.0604
     77 C           7.8080   42.9150   14.4140 C.2     1  UNL1       -0.0617
     78 C           7.6220   43.1370   15.7240 C.2     1  UNL1       -0.0618
     79 C           1.8400   42.0060   25.0590 C.3     1  UNL1       -0.0377
     80 C           6.3410   43.5400   16.2590 C.2     1  UNL1       -0.0618
     81 C           6.1320   43.8140   17.5560 C.2     1  UNL1       -0.0618
     82 C           4.8210   44.1480   18.0650 C.2     1  UNL1       -0.0618
     83 C           4.5990   44.5690   19.3190 C.2     1  UNL1       -0.0621
     84 C           3.2720   44.8800   19.7960 C.2     1  UNL1       -0.0656
     85 C           3.0340   45.4900   20.9670 C.2     1  UNL1       -0.0805
     86 C           1.6440   45.8200   21.4450 C.3     1  UNL1        0.0026
     87 C           1.4560   45.5680   22.9510 C.3     1  UNL1        0.1037
     88 C           0.0420   45.8970   23.4260 C.3     1  UNL1       -0.0274
     89 C           8.4110   42.4640   11.4130 C.3     1  UNL1       -0.0411
     90 C           0.4760   42.2740   25.7080 C.3     1  UNL1       -0.0522
     91 O           1.8530   44.2440   23.3750 O.3     1  UNL1       -0.4611
     92 C           0.6090   42.3930   27.2280 C.3     1  UNL1       -0.0530
     93 C          -0.7400   42.6790   27.8880 C.3     1  UNL1       -0.0533
     94 C          -0.5970   42.8160   29.4040 C.3     1  UNL1       -0.0559
     95 C          -1.9340   43.1040   30.0680 C.3     1  UNL1       -0.0653
     96 O           3.7940   40.5220   23.6470 O.3     1  UNL1       -0.3909
     97 O           5.1010   39.7710   21.5330 O.3     1  UNL1       -0.3916
     98 O           6.2410   38.8630   19.3750 O.3     1  UNL1       -0.3916
     99 O           7.4390   38.1150   17.1600 O.3     1  UNL1       -0.3916
    100 O           8.7620   37.6580   14.8810 O.3     1  UNL1       -0.3916
    101 O           9.4940   38.9400   10.9050 O.3     1  UNL1       -0.3916
    102 O          11.6670   42.1430   12.6280 O.3     1  UNL1       -0.3874
@<TRIPOS>BOND
     1    40   101    1
     2    58    89    1
     3    51    89    1
     4   101    72    1
     5    24    74    1
     6    89    29    1
     7    89    75    1
     8    74    75    1
     9    74   102    1
    10    74    73    1
    11    10   102    1
    12    72    22    1
    13    72    73    1
    14    72    71    1
    15    23    73    1
    16    46    71    1
    17    75    76    2
    18    21    71    1
    19    73    47    1
    20    71    70    1
    21     8    77    1
    22    76    77    1
    23    76     9    1
    24    77    78    2
    25    70   100    1
    26    70    20    1
    27    70    69    1
    28    19    69    1
    29    45    69    1
    30   100    39    1
    31    69    68    1
    32     6    80    1
    33    78    80    1
    34    78     7    1
    35    80    81    2
    36    68    18    1
    37    68    99    1
    38    68    67    1
    39    17    67    1
    40    44    67    1
    41    99    38    1
    42    67    66    1
    43     3    82    1
    44    81    82    1
    45    81     5    1
    46    82    83    2
    47    66    16    1
    48    66    65    1
    49    66    98    1
    50    15    65    1
    51     1    84    1
    52    43    65    1
    53    83    84    1
    54    83     4    1
    55    65    64    1
    56    98    37    1
    57    84    85    2
    58    64    14    1
    59    64    63    1
    60    64    97    1
    61    13    63    1
    62    26    86    1
    63    85    86    1
    64    85     2    1
    65    49    86    1
    66    42    63    1
    67    63    62    1
    68    86    87    1
    69    97    36    1
    70    60    59    2
    71    59    91    1
    72    59    61    1
    73    62    12    1
    74    62    61    1
    75    62    96    1
    76    28    88    1
    77    87    91    1
    78    87    88    1
    79    87    27    1
    80    50    88    1
    81    11    61    1
    82    88    57    1
    83    61    79    1
    84    96    35    1
    85    79    25    1
    86    79    48    1
    87    79    90    1
    88    52    90    1
    89    30    90    1
    90    90    92    1
    91    92    31    1
    92    92    53    1
    93    92    93    1
    94    54    93    1
    95    32    93    1
    96    93    94    1
    97    94    33    1
    98    94    55    1
    99    94    95    1
   100    56    95    1
   101    41    95    1
   102    95    34    1
