@<TRIPOS>MOLECULE
40.32998
 102 102 0 0 0
SMALL
GASTEIGER

@<TRIPOS>ATOM
      1 H           4.1060   41.5200   19.9010 H       1  UNL1        0.0614
      2 H           1.2850   41.5140   18.6760 H       1  UNL1        0.0573
      3 H           5.0570   39.2750   20.0480 H       1  UNL1        0.0618
      4 H           2.3630   39.3090   18.5620 H       1  UNL1        0.0617
      5 H           3.2140   37.0380   18.9170 H       1  UNL1        0.0618
      6 H           5.9270   37.0010   20.3660 H       1  UNL1        0.0618
      7 H           3.9410   34.7740   19.4880 H       1  UNL1        0.0618
      8 H           6.7430   34.7170   20.7370 H       1  UNL1        0.0618
      9 H           4.5890   32.5640   20.1790 H       1  UNL1        0.0618
     10 H           6.3350   28.9600   19.6010 H       1  UNL1        0.2102
     11 H           1.6420   41.6430   25.0890 H       1  UNL1        0.0439
     12 H           0.5090   40.0960   23.4300 H       1  UNL1        0.0602
     13 H           1.7010   39.0990   25.4370 H       1  UNL1        0.0315
     14 H           0.5970   37.4710   23.9100 H       1  UNL1        0.0595
     15 H           1.9450   36.4680   25.7170 H       1  UNL1        0.0315
     16 H           1.1560   34.8130   23.9350 H       1  UNL1        0.0595
     17 H           2.3180   33.8940   25.8940 H       1  UNL1        0.0315
     18 H           2.0320   32.3100   23.8760 H       1  UNL1        0.0595
     19 H           2.9920   31.5920   26.1460 H       1  UNL1        0.0315
     20 H           3.9560   29.4610   25.4490 H       1  UNL1        0.0595
     21 H           3.7320   30.3420   22.5290 H       1  UNL1        0.0315
     22 H           5.9040   31.2740   23.5030 H       1  UNL1        0.0595
     23 H           6.2710   28.6600   21.9380 H       1  UNL1        0.0318
     24 H           5.0180   30.3840   20.6060 H       1  UNL1        0.0641
     25 H           3.9320   41.6820   23.0330 H       1  UNL1        0.0274
     26 H           1.6970   43.9840   18.9110 H       1  UNL1        0.0343
     27 H           1.2220   44.4490   21.3510 H       1  UNL1        0.0734
     28 H          -0.4290   42.0360   20.3850 H       1  UNL1        0.0265
     29 H           8.2860   33.2180   20.7070 H       1  UNL1        0.0275
     30 H           3.5550   43.2650   25.6280 H       1  UNL1        0.0265
     31 H           5.8350   43.1820   23.5790 H       1  UNL1        0.0265
     32 H           5.4970   44.8540   26.1250 H       1  UNL1        0.0265
     33 H           7.7550   44.7360   24.0520 H       1  UNL1        0.0263
     34 H           8.8860   46.3650   25.5280 H       1  UNL1        0.0230
     35 H           1.9680   40.6880   21.6690 H       1  UNL1        0.2098
     36 H           2.2070   38.3040   22.1170 H       1  UNL1        0.2098
     37 H           2.6150   35.8760   22.3480 H       1  UNL1        0.2098
     38 H           3.6640   33.5740   22.6960 H       1  UNL1        0.2098
     39 H           1.7860   29.6500   25.4180 H       1  UNL1        0.2098
     40 H           7.2860   29.8370   24.5050 H       1  UNL1        0.2098
     41 H           7.4680   46.4320   26.5880 H       1  UNL1        0.0230
     42 H           3.1750   39.0070   24.4600 H       1  UNL1        0.0315
     43 H           3.4240   36.6880   24.7710 H       1  UNL1        0.0315
     44 H           3.8940   34.3330   25.2140 H       1  UNL1        0.0315
     45 H           4.6100   31.8160   25.4740 H       1  UNL1        0.0315
     46 H           4.1460   28.7740   23.1500 H       1  UNL1        0.0315
     47 H           7.5500   29.7710   22.2330 H       1  UNL1        0.0318
     48 H           4.0300   41.0140   24.6580 H       1  UNL1        0.0274
     49 H           3.0640   43.6800   19.9810 H       1  UNL1        0.0343
     50 H          -0.6800   43.7050   19.8090 H       1  UNL1        0.0265
     51 H           8.6080   31.5120   20.4990 H       1  UNL1        0.0275
     52 H           3.4840   43.9510   24.0030 H       1  UNL1        0.0265
     53 H           5.9160   42.5550   25.2270 H       1  UNL1        0.0265
     54 H           5.3960   45.4820   24.4780 H       1  UNL1        0.0265
     55 H           7.8570   44.1230   25.7030 H       1  UNL1        0.0263
     56 H           7.3660   47.0470   24.9260 H       1  UNL1        0.0230
     57 H          -0.9430   43.2790   21.5070 H       1  UNL1        0.0265
     58 H           8.1620   32.1370   22.1000 H       1  UNL1        0.0275
     59 C           1.3090   42.6120   23.2330 C.2     1  UNL1        0.3130
     60 O           0.5470   43.4520   23.6830 O.2     1  UNL1       -0.2504
     61 C           2.0130   41.5420   24.0610 C.3     1  UNL1        0.0823
     62 C           1.6000   40.1470   23.5310 C.3     1  UNL1        0.0705
     63 C           2.0800   38.9790   24.4160 C.3     1  UNL1        0.0001
     64 C           1.6860   37.5830   23.8740 C.3     1  UNL1        0.0600
     65 C           2.3510   36.4630   24.6990 C.3     1  UNL1       -0.0006
     66 C           2.2140   35.0600   24.0750 C.3     1  UNL1        0.0599
     67 C           2.8820   33.9900   24.9590 C.3     1  UNL1       -0.0006
     68 C           3.0090   32.6220   24.2610 C.3     1  UNL1        0.0599
     69 C           3.5740   31.5630   25.2170 C.3     1  UNL1       -0.0006
     70 C           3.5330   30.1220   24.6820 C.3     1  UNL1        0.0599
     71 C           4.2560   29.8480   23.3540 C.3     1  UNL1       -0.0006
     72 C           5.7490   30.2030   23.3550 C.3     1  UNL1        0.0602
     73 C           6.4630   29.7330   22.0810 C.3     1  UNL1        0.0032
     74 C           6.0940   30.4840   20.7920 C.3     1  UNL1        0.0786
     75 C           6.5120   31.9450   20.7380 C.2     1  UNL1       -0.0445
     76 C           5.6060   32.8880   20.4040 C.2     1  UNL1       -0.0604
     77 C           5.8110   34.3210   20.3460 C.2     1  UNL1       -0.0617
     78 C           4.8810   35.1650   19.8730 C.2     1  UNL1       -0.0618
     79 C           3.5370   41.7810   24.0520 C.3     1  UNL1       -0.0377
     80 C           5.0350   36.6060   19.8850 C.2     1  UNL1       -0.0618
     81 C           4.1100   37.4410   19.3850 C.2     1  UNL1       -0.0618
     82 C           4.2000   38.8810   19.5060 C.2     1  UNL1       -0.0618
     83 C           3.2360   39.7100   19.0740 C.2     1  UNL1       -0.0621
     84 C           3.2370   41.1260   19.3770 C.2     1  UNL1       -0.0656
     85 C           2.1680   41.9130   19.1720 C.2     1  UNL1       -0.0805
     86 C           2.0620   43.3240   19.7060 C.3     1  UNL1        0.0026
     87 C           1.1500   43.4290   20.9530 C.3     1  UNL1        0.1037
     88 C          -0.3050   43.0950   20.6360 C.3     1  UNL1       -0.0274
     89 C           7.9650   32.2240   21.0270 C.3     1  UNL1       -0.0411
     90 C           3.9350   43.1550   24.6060 C.3     1  UNL1       -0.0522
     91 O           1.6740   42.4990   21.9280 O.3     1  UNL1       -0.4611
     92 C           5.4560   43.3260   24.5980 C.3     1  UNL1       -0.0530
     93 C           5.8650   44.7110   25.1020 C.3     1  UNL1       -0.0533
     94 C           7.3830   44.8840   25.0720 C.3     1  UNL1       -0.0559
     95 C           7.7970   46.2640   25.5580 C.3     1  UNL1       -0.0653
     96 O           2.1570   39.9110   22.2330 O.3     1  UNL1       -0.3909
     97 O           2.0800   37.4100   22.5100 O.3     1  UNL1       -0.3916
     98 O           2.8380   35.0220   22.7880 O.3     1  UNL1       -0.3916
     99 O           3.9090   32.7400   23.1610 O.3     1  UNL1       -0.3916
    100 O           2.1630   29.7250   24.5250 O.3     1  UNL1       -0.3916
    101 O           6.3620   29.5350   24.4680 O.3     1  UNL1       -0.3916
    102 O           6.7540   29.8310   19.7010 O.3     1  UNL1       -0.3874
@<TRIPOS>BOND
     1     4    83    1
     2     2    85    1
     3    26    86    1
     4     5    81    1
     5    83    84    1
     6    83    82    2
     7    85    84    2
     8    85    86    1
     9    84     1    1
    10    81    82    1
    11    81    80    2
    12     7    78    1
    13    82     3    1
    14    10   102    1
    15   102    74    1
    16    86    49    1
    17    86    87    1
    18    50    88    1
    19    78    80    1
    20    78    77    2
    21    80     6    1
    22     9    76    1
    23    77    76    1
    24    77     8    1
    25    28    88    1
    26    76    75    2
    27    51    89    1
    28    24    74    1
    29    88    87    1
    30    88    57    1
    31    29    89    1
    32    75    74    1
    33    75    89    1
    34    74    73    1
    35    87    27    1
    36    87    91    1
    37    89    58    1
    38    35    96    1
    39    91    59    1
    40    23    73    1
    41    73    47    1
    42    73    72    1
    43    36    97    1
    44    96    62    1
    45    37    98    1
    46    97    64    1
    47    21    71    1
    48    38    99    1
    49    98    66    1
    50    25    79    1
    51    46    71    1
    52    99    68    1
    53    59    60    2
    54    59    61    1
    55    71    72    1
    56    71    70    1
    57    72    22    1
    58    72   101    1
    59    12    62    1
    60    62    61    1
    61    62    63    1
    62    31    92    1
    63    64    14    1
    64    64    63    1
    65    64    65    1
    66    18    68    1
    67    16    66    1
    68    52    90    1
    69    79    61    1
    70    79    90    1
    71    79    48    1
    72    33    94    1
    73    61    11    1
    74    66    65    1
    75    66    67    1
    76    68    67    1
    77    68    69    1
    78    63    42    1
    79    63    13    1
    80   101    40    1
    81    54    93    1
    82   100    70    1
    83   100    39    1
    84    92    90    1
    85    92    93    1
    86    92    53    1
    87    90    30    1
    88    70    69    1
    89    70    20    1
    90    65    43    1
    91    65    15    1
    92    56    95    1
    93    67    44    1
    94    67    17    1
    95    94    93    1
    96    94    95    1
    97    94    55    1
    98    93    32    1
    99    69    45    1
   100    69    19    1
   101    34    95    1
   102    95    41    1
