@<TRIPOS>MOLECULE
38.28005
 102 102 0 0 0
SMALL
GASTEIGER

@<TRIPOS>ATOM
      1 H          -2.8660   42.1340   21.8270 H       1  UNL1        0.0614
      2 H          -1.7420   44.9880   21.9900 H       1  UNL1        0.0573
      3 H          -4.2930   41.5950   23.7460 H       1  UNL1        0.0618
      4 H          -3.2260   44.4780   23.8460 H       1  UNL1        0.0617
      5 H          -4.6200   43.9320   25.7790 H       1  UNL1        0.0618
      6 H          -5.6370   41.0290   25.7130 H       1  UNL1        0.0618
      7 H          -5.9490   43.3630   27.7510 H       1  UNL1        0.0618
      8 H          -6.8910   40.4420   27.7160 H       1  UNL1        0.0618
      9 H          -7.2320   42.8100   29.6900 H       1  UNL1        0.0618
     10 H         -10.0140   41.4120   32.6480 H       1  UNL1        0.2102
     11 H           2.6350   41.8710   23.4330 H       1  UNL1        0.0439
     12 H           0.0310   41.8790   25.0250 H       1  UNL1        0.0602
     13 H           1.6390   43.8160   25.4290 H       1  UNL1        0.0315
     14 H           1.7350   41.8430   27.7700 H       1  UNL1        0.0595
     15 H          -0.6410   42.1520   27.1200 H       1  UNL1        0.0315
     16 H           0.0360   42.3110   29.6060 H       1  UNL1        0.0595
     17 H          -2.3410   42.1160   28.8990 H       1  UNL1        0.0315
     18 H          -1.7490   42.6130   31.3700 H       1  UNL1        0.0595
     19 H          -4.0390   41.9690   30.6690 H       1  UNL1        0.0315
     20 H          -3.6060   42.7710   33.1120 H       1  UNL1        0.0595
     21 H          -6.3730   43.3730   31.9460 H       1  UNL1        0.0315
     22 H          -5.5750   40.8970   31.7310 H       1  UNL1        0.0595
     23 H          -7.8470   41.4040   33.7310 H       1  UNL1        0.0318
     24 H          -8.4210   42.5190   31.6130 H       1  UNL1        0.0641
     25 H           1.7930   39.5940   23.2400 H       1  UNL1        0.0274
     26 H          -1.4360   44.2660   19.5430 H       1  UNL1        0.0343
     27 H           0.8460   43.4730   19.5260 H       1  UNL1        0.0734
     28 H           0.5270   45.6490   21.6330 H       1  UNL1        0.0265
     29 H          -7.6820   39.0750   29.0940 H       1  UNL1        0.0275
     30 H          -0.8400   40.8270   22.2760 H       1  UNL1        0.0265
     31 H           0.0580   37.9130   22.5080 H       1  UNL1        0.0265
     32 H          -2.5680   39.1630   21.5340 H       1  UNL1        0.0265
     33 H          -1.6890   36.2340   21.7730 H       1  UNL1        0.0263
     34 H          -3.8890   35.7350   20.7610 H       1  UNL1        0.0230
     35 H           2.3480   40.2770   25.4530 H       1  UNL1        0.2098
     36 H           3.0870   43.7000   27.8030 H       1  UNL1        0.2098
     37 H           0.9630   44.4660   29.1620 H       1  UNL1        0.2098
     38 H          -1.1750   44.8380   30.7310 H       1  UNL1        0.2098
     39 H          -3.3490   44.9790   32.2850 H       1  UNL1        0.2098
     40 H          -5.4020   39.8000   33.7090 H       1  UNL1        0.2098
     41 H          -4.3190   37.4540   20.7810 H       1  UNL1        0.0230
     42 H           2.9030   42.6610   25.7640 H       1  UNL1        0.0315
     43 H          -0.4000   43.9090   27.0330 H       1  UNL1        0.0315
     44 H          -2.4210   43.8740   28.6640 H       1  UNL1        0.0315
     45 H          -4.4140   43.6600   30.2920 H       1  UNL1        0.0315
     46 H          -6.0220   43.2490   33.6540 H       1  UNL1        0.0315
     47 H          -7.5550   39.8970   32.9460 H       1  UNL1        0.0318
     48 H           1.5850   40.4410   21.7310 H       1  UNL1        0.0274
     49 H          -1.3160   42.5910   20.0800 H       1  UNL1        0.0343
     50 H           0.6850   45.8320   19.8880 H       1  UNL1        0.0265
     51 H          -9.1610   39.1850   30.0360 H       1  UNL1        0.0275
     52 H          -0.6380   39.9450   23.7880 H       1  UNL1        0.0265
     53 H          -0.1490   38.7970   20.9930 H       1  UNL1        0.0265
     54 H          -2.3630   38.2850   23.0510 H       1  UNL1        0.0265
     55 H          -1.8960   37.1120   20.2560 H       1  UNL1        0.0263
     56 H          -4.1100   36.5720   22.3070 H       1  UNL1        0.0230
     57 H           2.0350   45.1910   20.8510 H       1  UNL1        0.0265
     58 H          -7.6090   38.8470   30.8300 H       1  UNL1        0.0275
     59 C           0.9360   42.9410   22.7530 C.2     1  UNL1        0.3130
     60 O           0.5140   43.9380   23.3210 O.2     1  UNL1       -0.2504
     61 C           1.5460   41.7410   23.4800 C.3     1  UNL1        0.0823
     62 C           1.1160   41.7370   24.9700 C.3     1  UNL1        0.0705
     63 C           1.8160   42.8100   25.8220 C.3     1  UNL1        0.0001
     64 C           1.4220   42.7880   27.3110 C.3     1  UNL1        0.0600
     65 C          -0.0850   42.9920   27.5470 C.3     1  UNL1       -0.0006
     66 C          -0.4350   43.1230   29.0390 C.3     1  UNL1        0.0599
     67 C          -1.9550   43.0770   29.2580 C.3     1  UNL1       -0.0006
     68 C          -2.3380   43.2820   30.7330 C.3     1  UNL1        0.0599
     69 C          -3.8340   43.0050   30.9560 C.3     1  UNL1       -0.0006
     70 C          -4.2770   43.2710   32.4060 C.3     1  UNL1        0.0599
     71 C          -5.7320   42.8570   32.6690 C.3     1  UNL1       -0.0006
     72 C          -5.9730   41.3440   32.6450 C.3     1  UNL1        0.0602
     73 C          -7.4580   40.9810   32.7950 C.3     1  UNL1        0.0032
     74 C          -8.3540   41.4250   31.6280 C.3     1  UNL1        0.0786
     75 C          -7.8930   40.9070   30.2740 C.2     1  UNL1       -0.0445
     76 C          -7.3220   41.7620   29.4000 C.2     1  UNL1       -0.0604
     77 C          -6.7660   41.4490   28.1020 C.2     1  UNL1       -0.0617
     78 C          -6.0880   42.3510   27.3750 C.2     1  UNL1       -0.0618
     79 C           1.2230   40.4030   22.7660 C.3     1  UNL1       -0.0377
     80 C          -5.4920   42.0380   26.0950 C.2     1  UNL1       -0.0618
     81 C          -4.7700   42.9250   25.3950 C.2     1  UNL1       -0.0618
     82 C          -4.1450   42.6010   24.1310 C.2     1  UNL1       -0.0618
     83 C          -3.3870   43.4750   23.4530 C.2     1  UNL1       -0.0621
     84 C          -2.7160   43.1370   22.2200 C.2     1  UNL1       -0.0656
     85 C          -1.8920   43.9870   21.5890 C.2     1  UNL1       -0.0805
     86 C          -1.0930   43.6270   20.3670 C.3     1  UNL1        0.0026
     87 C           0.4390   43.7670   20.5020 C.3     1  UNL1        0.1037
     88 C           0.9460   45.1890   20.7350 C.3     1  UNL1       -0.0274
     89 C          -8.0940   39.4300   30.0400 C.3     1  UNL1       -0.0411
     90 C          -0.2640   40.0340   22.7620 C.3     1  UNL1       -0.0522
     91 O           1.0060   42.7840   21.4040 O.3     1  UNL1       -0.4611
     92 C          -0.5110   38.7160   22.0250 C.3     1  UNL1       -0.0530
     93 C          -1.9990   38.3590   22.0190 C.3     1  UNL1       -0.0533
     94 C          -2.2530   37.0400   21.2910 C.3     1  UNL1       -0.0559
     95 C          -3.7300   36.6820   21.2860 C.3     1  UNL1       -0.0653
     96 O           1.4000   40.4660   25.5710 O.3     1  UNL1       -0.3909
     97 O           2.1380   43.8330   27.9830 O.3     1  UNL1       -0.3916
     98 O           0.0670   44.3590   29.5560 O.3     1  UNL1       -0.3916
     99 O          -2.0500   44.6250   31.1320 O.3     1  UNL1       -0.3916
    100 O          -4.2060   44.6790   32.6650 O.3     1  UNL1       -0.3916
    101 O          -5.2500   40.7610   33.7320 O.3     1  UNL1       -0.3916
    102 O          -9.6800   40.9520   31.8590 O.3     1  UNL1       -0.3874
@<TRIPOS>BOND
     1    27    87    1
     2    26    86    1
     3    50    88    1
     4    49    86    1
     5    55    94    1
     6    86    87    1
     7    86    85    1
     8    87    88    1
     9    87    91    1
    10    88    57    1
    11    88    28    1
    12    34    95    1
    13    41    95    1
    14    53    92    1
    15    95    94    1
    16    95    56    1
    17    94    33    1
    18    94    93    1
    19    91    59    1
    20    32    93    1
    21    85     2    1
    22    85    84    2
    23    48    79    1
    24     1    84    1
    25    93    92    1
    26    93    54    1
    27    92    31    1
    28    92    90    1
    29    84    83    1
    30    30    90    1
    31    59    60    2
    32    59    61    1
    33    90    79    1
    34    90    52    1
    35    79    25    1
    36    79    61    1
    37    11    61    1
    38    83     4    1
    39    83    82    2
    40    61    62    1
    41     3    82    1
    42    82    81    1
    43    62    12    1
    44    62    96    1
    45    62    63    1
    46    81     5    1
    47    81    80    2
    48    13    63    1
    49    35    96    1
    50     6    80    1
    51    42    63    1
    52    63    64    1
    53    80    78    1
    54    43    65    1
    55    15    65    1
    56    64    65    1
    57    64    14    1
    58    64    97    1
    59    78     7    1
    60    78    77    2
    61    65    66    1
    62     8    77    1
    63    36    97    1
    64    77    76    1
    65    44    67    1
    66    17    67    1
    67    66    67    1
    68    66    98    1
    69    66    16    1
    70    29    89    1
    71    37    98    1
    72    67    68    1
    73    76     9    1
    74    76    75    2
    75    51    89    1
    76    89    75    1
    77    89    58    1
    78    75    74    1
    79    45    69    1
    80    19    69    1
    81    38    99    1
    82    68    69    1
    83    68    99    1
    84    68    18    1
    85    69    70    1
    86    24    74    1
    87    74   102    1
    88    74    73    1
    89    22    72    1
    90   102    10    1
    91    21    71    1
    92    39   100    1
    93    70   100    1
    94    70    71    1
    95    70    20    1
    96    72    71    1
    97    72    73    1
    98    72   101    1
    99    71    46    1
   100    73    47    1
   101    73    23    1
   102    40   101    1
