@<TRIPOS>MOLECULE
34.63259
 102 102 0 0 0
SMALL
GASTEIGER

@<TRIPOS>ATOM
      1 H          -1.8050   38.2860   22.0530 H       1  UNL1        0.0614
      2 H          -1.3550   39.1470   24.9660 H       1  UNL1        0.0573
      3 H          -1.6170   35.8830   21.7670 H       1  UNL1        0.0618
      4 H          -0.6220   36.8110   24.5250 H       1  UNL1        0.0617
      5 H          -0.0030   34.4510   24.0080 H       1  UNL1        0.0618
      6 H          -1.4140   33.4960   21.4460 H       1  UNL1        0.0618
      7 H           0.5440   32.1050   23.4230 H       1  UNL1        0.0618
      8 H          -1.0680   31.1660   20.9850 H       1  UNL1        0.0618
      9 H           1.1680   29.8890   22.7110 H       1  UNL1        0.0618
     10 H           1.4410   25.7800   21.4530 H       1  UNL1        0.2102
     11 H           2.2380   41.0930   25.0260 H       1  UNL1        0.0439
     12 H           3.0170   41.1260   22.0630 H       1  UNL1        0.0602
     13 H           1.6030   39.1810   22.8380 H       1  UNL1        0.0315
     14 H           3.4060   38.6700   21.1550 H       1  UNL1        0.0595
     15 H           2.0060   36.7900   21.9450 H       1  UNL1        0.0315
     16 H           4.0460   36.1280   20.5520 H       1  UNL1        0.0595
     17 H           2.4470   34.3570   21.2010 H       1  UNL1        0.0315
     18 H           4.6730   33.5540   20.2100 H       1  UNL1        0.0595
     19 H           2.8890   31.9060   20.6360 H       1  UNL1        0.0315
     20 H           5.2310   30.9610   20.0670 H       1  UNL1        0.0595
     21 H           3.5630   29.3060   22.0350 H       1  UNL1        0.0315
     22 H           2.4080   29.9120   19.7700 H       1  UNL1        0.0595
     23 H           3.1510   26.9590   20.2150 H       1  UNL1        0.0318
     24 H           1.9280   27.7980   22.1960 H       1  UNL1        0.0641
     25 H           2.8500   43.5970   23.3640 H       1  UNL1        0.0274
     26 H          -3.1010   40.6820   23.4010 H       1  UNL1        0.0343
     27 H          -1.5380   42.7140   23.6420 H       1  UNL1        0.0734
     28 H          -2.0240   41.1140   26.2050 H       1  UNL1        0.0265
     29 H          -1.4930   29.3230   20.0490 H       1  UNL1        0.0275
     30 H           2.0720   43.1570   26.2970 H       1  UNL1        0.0265
     31 H           2.9310   45.7270   24.8690 H       1  UNL1        0.0265
     32 H           2.0280   45.1810   27.7500 H       1  UNL1        0.0265
     33 H           2.9300   47.7790   26.3940 H       1  UNL1        0.0263
     34 H           2.6320   48.7700   28.6430 H       1  UNL1        0.0230
     35 H           4.5730   40.5830   24.3840 H       1  UNL1        0.2098
     36 H           5.1070   39.3690   22.6080 H       1  UNL1        0.2098
     37 H           5.4580   36.8480   22.3570 H       1  UNL1        0.2098
     38 H           5.7810   34.3010   22.1940 H       1  UNL1        0.2098
     39 H           6.0090   31.7140   22.1820 H       1  UNL1        0.2098
     40 H           3.3080   28.8650   17.9700 H       1  UNL1        0.2098
     41 H           2.0170   47.2310   29.2690 H       1  UNL1        0.0230
     42 H           2.7670   38.9000   24.1440 H       1  UNL1        0.0315
     43 H           3.0140   36.6190   23.3920 H       1  UNL1        0.0315
     44 H           3.1940   34.2370   22.8020 H       1  UNL1        0.0315
     45 H           3.3540   31.8000   22.3420 H       1  UNL1        0.0315
     46 H           4.8780   28.6590   21.0840 H       1  UNL1        0.0315
     47 H           1.9090   27.4890   19.1420 H       1  UNL1        0.0318
     48 H           3.9290   42.9170   24.5820 H       1  UNL1        0.0274
     49 H          -1.6770   40.7080   22.3680 H       1  UNL1        0.0343
     50 H          -3.2250   42.1450   25.3900 H       1  UNL1        0.0265
     51 H          -1.1470   27.6130   20.1010 H       1  UNL1        0.0275
     52 H           1.1210   44.0150   25.0820 H       1  UNL1        0.0265
     53 H           3.8850   44.8690   26.0830 H       1  UNL1        0.0265
     54 H           1.1000   46.0670   26.5390 H       1  UNL1        0.0265
     55 H           3.8560   46.8890   27.6050 H       1  UNL1        0.0263
     56 H           1.0890   48.1290   28.0530 H       1  UNL1        0.0230
     57 H          -1.7430   42.8410   26.0790 H       1  UNL1        0.0265
     58 H          -0.1960   28.6740   19.0410 H       1  UNL1        0.0275
     59 C           0.8600   41.7620   23.5230 C.2     1  UNL1        0.3130
     60 O           0.5750   42.0360   22.3660 O.2     1  UNL1       -0.2504
     61 C           2.2710   41.6130   24.0590 C.3     1  UNL1        0.0823
     62 C           3.0990   40.7450   23.0880 C.3     1  UNL1        0.0705
     63 C           2.6610   39.2640   23.1130 C.3     1  UNL1        0.0001
     64 C           3.4960   38.3450   22.1980 C.3     1  UNL1        0.0600
     65 C           3.0310   36.8790   22.3250 C.3     1  UNL1       -0.0006
     66 C           3.9480   35.8660   21.6110 C.3     1  UNL1        0.0599
     67 C           3.3980   34.4310   21.7400 C.3     1  UNL1       -0.0006
     68 C           4.3760   33.3460   21.2440 C.3     1  UNL1        0.0599
     69 C           3.7400   31.9430   21.3240 C.3     1  UNL1       -0.0006
     70 C           4.7320   30.7990   21.0290 C.3     1  UNL1        0.0599
     71 C           4.0770   29.4110   21.0740 C.3     1  UNL1       -0.0006
     72 C           3.1340   29.1070   19.9070 C.3     1  UNL1        0.0602
     73 C           2.4110   27.7590   20.0810 C.3     1  UNL1        0.0032
     74 C           1.4000   27.7140   21.2400 C.3     1  UNL1        0.0786
     75 C           0.3370   28.7940   21.1230 C.2     1  UNL1       -0.0445
     76 C           0.4010   29.8690   21.9360 C.2     1  UNL1       -0.0604
     77 C          -0.3660   31.0880   21.8090 C.2     1  UNL1       -0.0617
     78 C          -0.1650   32.1540   22.5990 C.2     1  UNL1       -0.0618
     79 C           2.8760   43.0130   24.2930 C.3     1  UNL1       -0.0377
     80 C          -0.7980   33.4270   22.3410 C.2     1  UNL1       -0.0618
     81 C          -0.6100   34.5110   23.1070 C.2     1  UNL1       -0.0618
     82 C          -1.1490   35.8020   22.7470 C.2     1  UNL1       -0.0618
     83 C          -1.0670   36.8830   23.5350 C.2     1  UNL1       -0.0621
     84 C          -1.5290   38.1800   23.1010 C.2     1  UNL1       -0.0656
     85 C          -1.6060   39.2450   23.9120 C.2     1  UNL1       -0.0805
     86 C          -2.0070   40.6090   23.4090 C.3     1  UNL1        0.0026
     87 C          -1.4250   41.7860   24.2170 C.3     1  UNL1        0.1037
     88 C          -2.1550   41.9780   25.5450 C.3     1  UNL1       -0.0274
     89 C          -0.6760   28.5980   20.0220 C.3     1  UNL1       -0.0411
     90 C           2.1440   43.7850   25.4000 C.3     1  UNL1       -0.0522
     91 O          -0.0330   41.5880   24.5340 O.3     1  UNL1       -0.4611
     92 C           2.8610   45.0890   25.7580 C.3     1  UNL1       -0.0530
     93 C           2.1190   45.8320   26.8710 C.3     1  UNL1       -0.0533
     94 C           2.8390   47.1200   27.2650 C.3     1  UNL1       -0.0559
     95 C           2.0990   47.8540   28.3720 C.3     1  UNL1       -0.0653
     96 O           4.4900   40.8080   23.4370 O.3     1  UNL1       -0.3909
     97 O           4.8790   38.4140   22.5530 O.3     1  UNL1       -0.3916
     98 O           5.2580   35.8970   22.1870 O.3     1  UNL1       -0.3916
     99 O           5.5620   33.3510   22.0440 O.3     1  UNL1       -0.3916
    100 O           5.7450   30.7760   22.0440 O.3     1  UNL1       -0.3916
    101 O           3.9120   29.0530   18.7090 O.3     1  UNL1       -0.3916
    102 O           0.7580   26.4420   21.2540 O.3     1  UNL1       -0.3874
@<TRIPOS>BOND
     1    40   101    1
     2   101    72    1
     3    58    89    1
     4    47    73    1
     5    22    72    1
     6    72    73    1
     7    72    71    1
     8    89    29    1
     9    89    51    1
    10    89    75    1
    11    20    70    1
    12    73    23    1
    13    73    74    1
    14    18    68    1
    15    16    66    1
    16    19    69    1
    17     8    77    1
    18    70    71    1
    19    70    69    1
    20    70   100    1
    21    71    46    1
    22    71    21    1
    23    75    74    1
    24    75    76    2
    25    14    64    1
    26    17    67    1
    27    74   102    1
    28    74    24    1
    29    68    69    1
    30    68    67    1
    31    68    99    1
    32   102    10    1
    33    69    45    1
    34     6    80    1
    35    66    67    1
    36    66    98    1
    37    66    65    1
    38    67    44    1
    39     3    82    1
    40    77    76    1
    41    77    78    2
    42    76     9    1
    43    15    65    1
    44   100    39    1
    45    99    38    1
    46     1    84    1
    47    12    62    1
    48    98    37    1
    49    64    65    1
    50    64    97    1
    51    64    63    1
    52    65    43    1
    53    80    78    1
    54    80    81    2
    55    60    59    2
    56    49    86    1
    57    97    36    1
    58    78     7    1
    59    82    81    1
    60    82    83    2
    61    13    63    1
    62    62    63    1
    63    62    96    1
    64    62    61    1
    65    84    83    1
    66    84    85    2
    67    81     5    1
    68    63    42    1
    69    25    79    1
    70    26    86    1
    71    86    85    1
    72    86    87    1
    73    96    35    1
    74    59    61    1
    75    59    91    1
    76    83     4    1
    77    27    87    1
    78    85     2    1
    79    61    79    1
    80    61    11    1
    81    87    91    1
    82    87    88    1
    83    79    48    1
    84    79    90    1
    85    31    92    1
    86    52    90    1
    87    50    88    1
    88    90    92    1
    89    90    30    1
    90    88    57    1
    91    88    28    1
    92    92    53    1
    93    92    93    1
    94    33    94    1
    95    54    93    1
    96    93    94    1
    97    93    32    1
    98    94    55    1
    99    94    95    1
   100    56    95    1
   101    95    34    1
   102    95    41    1
