@<TRIPOS>MOLECULE
44.64692
 102 102 0 0 0
SMALL
GASTEIGER

@<TRIPOS>ATOM
      1 H           1.4490   45.8750   24.0150 H       1  UNL1        0.0614
      2 H           1.5620   46.2120   20.9610 H       1  UNL1        0.0573
      3 H           3.5230   46.5190   25.1080 H       1  UNL1        0.0618
      4 H           3.6040   47.0170   22.0730 H       1  UNL1        0.0617
      5 H           5.7410   47.5250   23.1680 H       1  UNL1        0.0618
      6 H           5.6380   47.0220   26.2010 H       1  UNL1        0.0618
      7 H           7.9100   47.8410   24.2390 H       1  UNL1        0.0618
      8 H           7.8050   47.3260   27.2630 H       1  UNL1        0.0618
      9 H          10.0620   47.9710   25.2350 H       1  UNL1        0.0618
     10 H          13.5710   48.7810   27.5030 H       1  UNL1        0.2102
     11 H           1.2750   40.1400   23.9040 H       1  UNL1        0.0439
     12 H           2.8370   42.7270   24.3190 H       1  UNL1        0.0602
     13 H           2.9720   42.0790   21.8820 H       1  UNL1        0.0315
     14 H           5.3000   42.1060   21.5870 H       1  UNL1        0.0595
     15 H           5.7420   40.1610   23.2280 H       1  UNL1        0.0315
     16 H           8.0110   40.7000   23.7090 H       1  UNL1        0.0595
     17 H           7.6890   43.0360   24.5980 H       1  UNL1        0.0315
     18 H           9.9680   42.0470   23.8240 H       1  UNL1        0.0595
     19 H           9.7880   44.1540   25.1330 H       1  UNL1        0.0315
     20 H          12.0670   43.3420   24.1410 H       1  UNL1        0.0595
     21 H          11.7400   46.3690   24.4620 H       1  UNL1        0.0315
     22 H          11.1210   45.0350   26.5810 H       1  UNL1        0.0595
     23 H          13.8280   46.4700   26.7730 H       1  UNL1        0.0318
     24 H          12.2140   48.0950   25.9120 H       1  UNL1        0.0641
     25 H           0.5470   42.7400   25.3540 H       1  UNL1        0.0274
     26 H          -0.8380   45.7550   21.2130 H       1  UNL1        0.0343
     27 H          -1.1170   43.3470   21.5960 H       1  UNL1        0.0734
     28 H           1.6310   43.7350   20.2620 H       1  UNL1        0.0265
     29 H           9.1490   47.3920   28.8840 H       1  UNL1        0.0275
     30 H          -0.7680   39.9730   25.3640 H       1  UNL1        0.0265
     31 H          -1.4450   42.5620   26.8630 H       1  UNL1        0.0265
     32 H          -2.7980   39.8120   26.8910 H       1  UNL1        0.0265
     33 H          -3.4530   42.4130   28.3800 H       1  UNL1        0.0263
     34 H          -5.2290   41.0760   29.4610 H       1  UNL1        0.0230
     35 H           3.3820   39.9580   24.7410 H       1  UNL1        0.2098
     36 H           4.4240   43.9600   22.5580 H       1  UNL1        0.2098
     37 H           7.4680   40.3100   21.5610 H       1  UNL1        0.2098
     38 H           9.2070   42.3440   21.5550 H       1  UNL1        0.2098
     39 H          11.3050   44.0000   22.0010 H       1  UNL1        0.2098
     40 H          12.8130   43.8550   27.5210 H       1  UNL1        0.2098
     41 H          -4.8220   39.6730   28.4590 H       1  UNL1        0.0230
     42 H           3.5360   40.4750   22.3510 H       1  UNL1        0.0315
     43 H           5.8040   41.3800   24.5150 H       1  UNL1        0.0315
     44 H           7.5060   43.6060   22.9200 H       1  UNL1        0.0315
     45 H           9.5920   45.0760   23.6300 H       1  UNL1        0.0315
     46 H          13.2660   45.5170   24.4370 H       1  UNL1        0.0315
     47 H          12.8290   46.0640   28.1190 H       1  UNL1        0.0318
     48 H           1.2050   41.3100   26.1410 H       1  UNL1        0.0274
     49 H          -0.6540   45.3650   22.9200 H       1  UNL1        0.0343
     50 H           0.0770   44.0670   19.4520 H       1  UNL1        0.0265
     51 H          10.6810   48.1050   29.3370 H       1  UNL1        0.0275
     52 H          -1.4550   41.4270   24.6310 H       1  UNL1        0.0265
     53 H          -0.7740   41.1060   27.6000 H       1  UNL1        0.0265
     54 H          -3.4690   41.2660   26.1490 H       1  UNL1        0.0265
     55 H          -2.7830   40.9600   29.1230 H       1  UNL1        0.0263
     56 H          -5.4970   41.1340   27.7100 H       1  UNL1        0.0230
     57 H           0.5010   42.4310   19.9740 H       1  UNL1        0.0265
     58 H          10.5790   46.3680   28.9830 H       1  UNL1        0.0275
     59 C           0.5270   41.7680   22.7840 C.2     1  UNL1        0.3130
     60 O          -0.1540   41.0570   22.0570 O.2     1  UNL1       -0.2504
     61 C           1.2990   41.2360   23.9740 C.3     1  UNL1        0.0823
     62 C           2.7800   41.6820   23.9940 C.3     1  UNL1        0.0705
     63 C           3.5230   41.5290   22.6530 C.3     1  UNL1        0.0001
     64 C           4.9700   42.0750   22.6330 C.3     1  UNL1        0.0600
     65 C           5.9530   41.2170   23.4420 C.3     1  UNL1       -0.0006
     66 C           7.4440   41.4530   23.1470 C.3     1  UNL1        0.0599
     67 C           7.9640   42.8390   23.5550 C.3     1  UNL1       -0.0006
     68 C           9.4920   42.9330   23.3890 C.3     1  UNL1        0.0599
     69 C          10.0590   44.1870   24.0730 C.3     1  UNL1       -0.0006
     70 C          11.5860   44.2970   23.9040 C.3     1  UNL1        0.0599
     71 C          12.2140   45.4220   24.7400 C.3     1  UNL1       -0.0006
     72 C          12.1520   45.1960   26.2550 C.3     1  UNL1        0.0602
     73 C          12.7740   46.3490   27.0590 C.3     1  UNL1        0.0032
     74 C          12.0560   47.7010   26.9240 C.3     1  UNL1        0.0786
     75 C          10.5720   47.6300   27.2400 C.2     1  UNL1       -0.0445
     76 C           9.6820   47.7610   26.2360 C.2     1  UNL1       -0.0604
     77 C           8.2510   47.5720   26.3040 C.2     1  UNL1       -0.0617
     78 C           7.4750   47.6160   25.2100 C.2     1  UNL1       -0.0618
     79 C           0.6010   41.6460   25.2890 C.3     1  UNL1       -0.0377
     80 C           6.0660   47.2970   25.2390 C.2     1  UNL1       -0.0618
     81 C           5.3090   47.2670   24.1330 C.2     1  UNL1       -0.0618
     82 C           3.9330   46.8280   24.1480 C.2     1  UNL1       -0.0618
     83 C           3.1910   46.7260   23.0360 C.2     1  UNL1       -0.0621
     84 C           1.8590   46.1700   23.0500 C.2     1  UNL1       -0.0656
     85 C           1.1550   45.9400   21.9330 C.2     1  UNL1       -0.0805
     86 C          -0.1850   45.2500   21.9340 C.3     1  UNL1        0.0026
     87 C          -0.0950   43.7470   21.6000 C.3     1  UNL1        0.1037
     88 C           0.5640   43.4890   20.2440 C.3     1  UNL1       -0.0274
     89 C          10.2210   47.3580   28.6820 C.3     1  UNL1       -0.0411
     90 C          -0.8090   41.0660   25.4400 C.3     1  UNL1       -0.0522
     91 O           0.6560   43.1120   22.6600 O.3     1  UNL1       -0.4611
     92 C          -1.4150   41.4680   26.7870 C.3     1  UNL1       -0.0530
     93 C          -2.8260   40.9060   26.9610 C.3     1  UNL1       -0.0533
     94 C          -3.4210   41.3200   28.3070 C.3     1  UNL1       -0.0559
     95 C          -4.8250   40.7670   28.4920 C.3     1  UNL1       -0.0653
     96 O           3.4470   40.8950   24.9920 O.3     1  UNL1       -0.3909
     97 O           4.9900   43.4090   23.1270 O.3     1  UNL1       -0.3916
     98 O           7.7290   41.2270   21.7630 O.3     1  UNL1       -0.3916
     99 O           9.8310   42.9620   21.9980 O.3     1  UNL1       -0.3916
    100 O          11.8810   44.5940   22.5320 O.3     1  UNL1       -0.3916
    101 O          12.8680   43.9960   26.5600 O.3     1  UNL1       -0.3916
    102 O          12.6600   48.6380   27.8130 O.3     1  UNL1       -0.3874
@<TRIPOS>BOND
     1    50    88    1
     2    57    88    1
     3    88    28    1
     4    88    87    1
     5     2    85    1
     6    26    86    1
     7    38    99    1
     8    37    98    1
     9    14    64    1
    10    27    87    1
    11    87    86    1
    12    87    91    1
    13    98    66    1
    14    13    63    1
    15    85    86    1
    16    85    84    2
    17    86    49    1
    18    99    68    1
    19    39   100    1
    20    60    59    2
    21     4    83    1
    22    42    63    1
    23   100    70    1
    24    36    97    1
    25    64    63    1
    26    64    97    1
    27    64    65    1
    28    63    62    1
    29    91    59    1
    30    59    61    1
    31    44    67    1
    32    83    84    1
    33    83    82    2
    34    84     1    1
    35    66    65    1
    36    66    67    1
    37    66    16    1
    38     5    81    1
    39    15    65    1
    40    68    67    1
    41    68    18    1
    42    68    69    1
    43    65    43    1
    44    67    17    1
    45    45    69    1
    46    11    61    1
    47    70    69    1
    48    70    20    1
    49    70    71    1
    50    61    62    1
    51    61    79    1
    52    62    12    1
    53    62    96    1
    54    69    19    1
    55    81    82    1
    56    81    80    2
    57    82     3    1
    58     7    78    1
    59    46    71    1
    60    21    71    1
    61    52    90    1
    62    71    72    1
    63    35    96    1
    64    78    80    1
    65    78    77    2
    66     9    76    1
    67    80     6    1
    68    79    25    1
    69    79    90    1
    70    79    48    1
    71    30    90    1
    72    90    92    1
    73    24    74    1
    74    54    93    1
    75    76    77    1
    76    76    75    2
    77    72   101    1
    78    72    22    1
    79    72    73    1
    80    77     8    1
    81   101    40    1
    82    23    73    1
    83    92    31    1
    84    92    93    1
    85    92    53    1
    86    32    93    1
    87    74    73    1
    88    74    75    1
    89    74   102    1
    90    93    94    1
    91    73    47    1
    92    75    89    1
    93    10   102    1
    94    56    95    1
    95    94    33    1
    96    94    95    1
    97    94    55    1
    98    41    95    1
    99    95    34    1
   100    89    29    1
   101    89    58    1
   102    89    51    1
