@<TRIPOS>MOLECULE
33.92994
 102 102 0 0 0
SMALL
GASTEIGER

@<TRIPOS>ATOM
      1 H           1.4050   44.9160   20.4690 H       1  UNL1        0.0614
      2 H           0.6720   42.6450   18.5340 H       1  UNL1        0.0573
      3 H           3.6210   45.7880   20.0980 H       1  UNL1        0.0618
      4 H           2.9040   43.5440   18.1170 H       1  UNL1        0.0617
      5 H           5.1720   44.4130   17.7740 H       1  UNL1        0.0618
      6 H           5.9150   46.5950   19.8130 H       1  UNL1        0.0618
      7 H           7.4660   45.1820   17.5140 H       1  UNL1        0.0618
      8 H           8.2770   47.2180   19.6630 H       1  UNL1        0.0618
      9 H           9.7580   45.7780   17.3490 H       1  UNL1        0.0618
     10 H          13.7190   47.4110   17.2750 H       1  UNL1        0.2102
     11 H           0.9110   41.2480   23.9440 H       1  UNL1        0.0439
     12 H           3.5720   42.5480   23.1430 H       1  UNL1        0.0602
     13 H           2.2760   41.4920   21.2480 H       1  UNL1        0.0315
     14 H           4.6200   39.7310   22.1840 H       1  UNL1        0.0595
     15 H           5.2550   42.1430   21.6740 H       1  UNL1        0.0315
     16 H           6.8260   40.2330   21.0830 H       1  UNL1        0.0595
     17 H           7.4570   42.6570   20.7030 H       1  UNL1        0.0315
     18 H           9.1020   40.8100   20.1000 H       1  UNL1        0.0595
     19 H           9.6730   43.2450   19.8570 H       1  UNL1        0.0315
     20 H          11.4230   41.5000   19.1840 H       1  UNL1        0.0595
     21 H          11.3540   43.9350   17.3300 H       1  UNL1        0.0315
     22 H          11.4010   44.4870   19.8990 H       1  UNL1        0.0595
     23 H          13.9160   45.2030   18.2960 H       1  UNL1        0.0318
     24 H          11.9910   46.0710   17.0550 H       1  UNL1        0.0641
     25 H           2.3640   43.5240   25.3830 H       1  UNL1        0.0274
     26 H          -1.0370   42.1190   20.0640 H       1  UNL1        0.0343
     27 H          -0.4730   44.6790   21.6630 H       1  UNL1        0.0734
     28 H          -2.6870   42.6020   22.0190 H       1  UNL1        0.0265
     29 H          10.0740   48.0120   20.4160 H       1  UNL1        0.0275
     30 H          -0.2870   42.0890   25.9530 H       1  UNL1        0.0265
     31 H           1.1820   44.3050   27.4790 H       1  UNL1        0.0265
     32 H          -1.5040   42.9260   28.0120 H       1  UNL1        0.0265
     33 H          -0.0180   45.1280   29.5460 H       1  UNL1        0.0263
     34 H          -1.9000   44.9620   31.1430 H       1  UNL1        0.0230
     35 H           3.0490   40.1170   24.5290 H       1  UNL1        0.2098
     36 H           3.2010   38.7310   20.7140 H       1  UNL1        0.2098
     37 H           5.2040   39.5800   19.3530 H       1  UNL1        0.2098
     38 H           7.5780   40.1610   18.3020 H       1  UNL1        0.2098
     39 H           9.9610   40.8690   17.3510 H       1  UNL1        0.2098
     40 H          13.3760   43.9850   20.8910 H       1  UNL1        0.2098
     41 H          -2.7130   43.7790   30.1040 H       1  UNL1        0.0230
     42 H           2.1050   40.0290   22.1910 H       1  UNL1        0.0315
     43 H           4.4990   41.9490   20.0790 H       1  UNL1        0.0315
     44 H           6.7910   42.5290   19.0610 H       1  UNL1        0.0315
     45 H           9.0750   43.1970   18.1880 H       1  UNL1        0.0315
     46 H          12.7550   42.9360   17.6220 H       1  UNL1        0.0315
     47 H          13.4270   45.9760   19.7590 H       1  UNL1        0.0318
     48 H           2.2080   41.8770   25.9870 H       1  UNL1        0.0274
     49 H          -1.5380   43.7140   19.5040 H       1  UNL1        0.0343
     50 H          -2.9170   44.2920   21.5080 H       1  UNL1        0.0265
     51 H          11.4950   48.7210   19.6700 H       1  UNL1        0.0275
     52 H          -0.1340   43.7620   25.4120 H       1  UNL1        0.0265
     53 H           0.9880   42.6390   28.0300 H       1  UNL1        0.0265
     54 H          -1.3080   44.5900   27.4590 H       1  UNL1        0.0265
     55 H          -0.2290   43.4650   30.1010 H       1  UNL1        0.0263
     56 H          -2.4980   45.4510   29.5490 H       1  UNL1        0.0230
     57 H          -2.3050   43.9080   23.1320 H       1  UNL1        0.0265
     58 H          11.6450   47.2800   20.6980 H       1  UNL1        0.0275
     59 C           0.9960   43.1990   23.0410 C.2     1  UNL1        0.3130
     60 O           1.4280   44.3410   22.9730 O.2     1  UNL1       -0.2504
     61 C           1.5900   42.1110   23.9160 C.3     1  UNL1        0.0823
     62 C           2.9420   41.6680   23.3180 C.3     1  UNL1        0.0705
     63 C           2.7760   40.8810   22.0080 C.3     1  UNL1        0.0001
     64 C           4.0900   40.3260   21.4330 C.3     1  UNL1        0.0600
     65 C           5.0210   41.4200   20.8860 C.3     1  UNL1       -0.0006
     66 C           6.3330   40.8460   20.3200 C.3     1  UNL1        0.0599
     67 C           7.2800   41.9680   19.8680 C.3     1  UNL1       -0.0006
     68 C           8.6260   41.4390   19.3400 C.3     1  UNL1        0.0599
     69 C           9.5590   42.6070   18.9760 C.3     1  UNL1       -0.0006
     70 C          10.9360   42.1560   18.4540 C.3     1  UNL1        0.0599
     71 C          11.8530   43.3390   18.1010 C.3     1  UNL1       -0.0006
     72 C          12.2660   44.2100   19.2920 C.3     1  UNL1        0.0602
     73 C          13.0190   45.4800   18.8670 C.3     1  UNL1        0.0032
     74 C          12.1900   46.4870   18.0500 C.3     1  UNL1        0.0786
     75 C          10.8860   46.8880   18.7230 C.2     1  UNL1       -0.0445
     76 C           9.7220   46.4060   18.2400 C.2     1  UNL1       -0.0604
     77 C           8.4020   46.5590   18.8100 C.2     1  UNL1       -0.0617
     78 C           7.3490   45.8610   18.3570 C.2     1  UNL1       -0.0618
     79 C           1.7220   42.6350   25.3620 C.3     1  UNL1       -0.0377
     80 C           6.0450   45.9080   18.9800 C.2     1  UNL1       -0.0618
     81 C           5.0350   45.1110   18.5980 C.2     1  UNL1       -0.0618
     82 C           3.7560   45.0940   19.2700 C.2     1  UNL1       -0.0618
     83 C           2.7700   44.2480   18.9360 C.2     1  UNL1       -0.0621
     84 C           1.5180   44.2010   19.6570 C.2     1  UNL1       -0.0656
     85 C           0.5380   43.3310   19.3700 C.2     1  UNL1       -0.0805
     86 C          -0.7790   43.1860   20.0940 C.3     1  UNL1        0.0026
     87 C          -0.8360   43.6510   21.5610 C.3     1  UNL1        0.1037
     88 C          -2.2730   43.6150   22.0770 C.3     1  UNL1       -0.0274
     89 C          11.0250   47.7690   19.9390 C.3     1  UNL1       -0.0411
     90 C           0.3620   42.9720   25.9890 C.3     1  UNL1       -0.0522
     91 O          -0.0890   42.7190   22.3760 O.3     1  UNL1       -0.4611
     92 C           0.5170   43.4340   27.4390 C.3     1  UNL1       -0.0530
     93 C          -0.8370   43.7960   28.0520 C.3     1  UNL1       -0.0533
     94 C          -0.6870   44.2600   29.5000 C.3     1  UNL1       -0.0559
     95 C          -2.0300   44.6340   30.1070 C.3     1  UNL1       -0.0653
     96 O           3.6440   40.8330   24.2450 O.3     1  UNL1       -0.3909
     97 O           3.7690   39.4360   20.3520 O.3     1  UNL1       -0.3916
     98 O           6.0770   40.0050   19.1900 O.3     1  UNL1       -0.3916
     99 O           8.4320   40.6370   18.1720 O.3     1  UNL1       -0.3916
    100 O          10.7750   41.4110   17.2410 O.3     1  UNL1       -0.3916
    101 O          13.1190   43.4300   20.1340 O.3     1  UNL1       -0.3916
    102 O          12.9680   47.6630   17.8370 O.3     1  UNL1       -0.3874
@<TRIPOS>BOND
     1    24    74    1
     2   100    39    1
     3   100    70    1
     4    10   102    1
     5    21    71    1
     6     9    76    1
     7     7    78    1
     8    46    71    1
     9     5    81    1
    10   102    74    1
    11    74    75    1
    12    74    73    1
    13    71    70    1
    14    71    72    1
    15     4    83    1
    16    99    38    1
    17    99    68    1
    18    45    69    1
    19    76    75    2
    20    76    77    1
    21    23    73    1
    22    78    77    2
    23    78    80    1
    24    70    69    1
    25    70    20    1
    26     2    85    1
    27    81    80    2
    28    81    82    1
    29    75    89    1
    30    77     8    1
    31    73    72    1
    32    73    47    1
    33    83    82    2
    34    83    84    1
    35    69    68    1
    36    69    19    1
    37    80     6    1
    38    44    67    1
    39    98    37    1
    40    98    66    1
    41    82     3    1
    42    72    22    1
    43    72   101    1
    44    68    67    1
    45    68    18    1
    46    85    84    2
    47    85    86    1
    48    49    86    1
    49    84     1    1
    50    51    89    1
    51    67    66    1
    52    67    17    1
    53    89    29    1
    54    89    58    1
    55    26    86    1
    56    43    65    1
    57    86    87    1
    58   101    40    1
    59    66    65    1
    60    66    16    1
    61    97    36    1
    62    97    64    1
    63    65    64    1
    64    65    15    1
    65    13    63    1
    66    64    63    1
    67    64    14    1
    68    50    88    1
    69    87    27    1
    70    87    88    1
    71    87    91    1
    72    63    42    1
    73    63    62    1
    74    28    88    1
    75    88    57    1
    76    91    59    1
    77    60    59    2
    78    59    61    1
    79    12    62    1
    80    62    61    1
    81    62    96    1
    82    61    11    1
    83    61    79    1
    84    96    35    1
    85    79    25    1
    86    79    48    1
    87    79    90    1
    88    52    90    1
    89    30    90    1
    90    90    92    1
    91    92    31    1
    92    92    53    1
    93    92    93    1
    94    54    93    1
    95    32    93    1
    96    93    94    1
    97    94    33    1
    98    94    55    1
    99    94    95    1
   100    56    95    1
   101    41    95    1
   102    95    34    1
