@<TRIPOS>MOLECULE
46.24772
 102 102 0 0 0
SMALL
GASTEIGER

@<TRIPOS>ATOM
      1 H          -1.2060   39.3480   22.3510 H       1  UNL1        0.0614
      2 H          -3.1540   41.6970   22.7270 H       1  UNL1        0.0573
      3 H          -1.0560   37.9780   24.4160 H       1  UNL1        0.0618
      4 H          -3.1440   40.2270   24.6270 H       1  UNL1        0.0617
      5 H          -2.9330   38.9970   26.6820 H       1  UNL1        0.0618
      6 H          -0.8040   36.7820   26.5770 H       1  UNL1        0.0618
      7 H          -2.6200   37.9480   28.8210 H       1  UNL1        0.0618
      8 H          -0.5010   35.7310   28.7870 H       1  UNL1        0.0618
      9 H          -2.2440   37.0690   30.9780 H       1  UNL1        0.0618
     10 H          -2.2950   34.5380   34.2870 H       1  UNL1        0.2102
     11 H           2.4380   42.9360   23.1010 H       1  UNL1        0.0439
     12 H           1.2810   41.1600   25.3030 H       1  UNL1        0.0602
     13 H           1.0150   44.0140   25.1540 H       1  UNL1        0.0315
     14 H           0.2160   43.9250   27.3900 H       1  UNL1        0.0595
     15 H           2.0880   42.8010   28.5000 H       1  UNL1        0.0315
     16 H          -0.2980   42.6130   29.5380 H       1  UNL1        0.0595
     17 H           1.6940   42.0590   30.8530 H       1  UNL1        0.0315
     18 H          -0.6500   41.2780   31.7140 H       1  UNL1        0.0595
     19 H           1.4920   41.3200   33.0750 H       1  UNL1        0.0315
     20 H           0.8380   39.9300   34.8960 H       1  UNL1        0.0595
     21 H          -1.3220   38.5810   33.2090 H       1  UNL1        0.0315
     22 H           0.8290   37.4500   32.6310 H       1  UNL1        0.0595
     23 H          -0.5380   35.9840   34.9620 H       1  UNL1        0.0318
     24 H          -2.1630   36.3750   33.1100 H       1  UNL1        0.0641
     25 H           1.2750   40.1120   22.8310 H       1  UNL1        0.0274
     26 H          -2.7030   41.7710   20.2520 H       1  UNL1        0.0343
     27 H          -0.7790   43.2040   20.0460 H       1  UNL1        0.0734
     28 H          -2.2490   43.9380   22.6140 H       1  UNL1        0.0265
     29 H           0.1460   34.2340   30.1430 H       1  UNL1        0.0275
     30 H           3.4500   41.6030   21.2670 H       1  UNL1        0.0265
     31 H           2.2090   38.8220   20.9100 H       1  UNL1        0.0265
     32 H           4.2500   40.3260   19.1860 H       1  UNL1        0.0265
     33 H           3.0260   37.5250   18.9180 H       1  UNL1        0.0263
     34 H           4.4970   37.3180   16.9410 H       1  UNL1        0.0230
     35 H           3.8220   42.4030   24.9860 H       1  UNL1        0.2098
     36 H          -0.8340   42.5690   25.6480 H       1  UNL1        0.2098
     37 H          -0.8560   41.0330   27.8600 H       1  UNL1        0.2098
     38 H          -0.6030   39.5400   30.1180 H       1  UNL1        0.2098
     39 H          -0.3760   41.7250   34.5770 H       1  UNL1        0.2098
     40 H           2.2190   36.8240   34.2620 H       1  UNL1        0.2098
     41 H           5.0300   38.9980   17.1270 H       1  UNL1        0.0230
     42 H           2.4120   43.7750   26.1780 H       1  UNL1        0.0315
     43 H           1.7190   41.2770   27.6750 H       1  UNL1        0.0315
     44 H           1.8070   40.4630   30.0890 H       1  UNL1        0.0315
     45 H           1.7930   39.6440   32.6200 H       1  UNL1        0.0315
     46 H          -1.0000   38.3910   34.9060 H       1  UNL1        0.0315
     47 H           0.5820   35.2440   33.8850 H       1  UNL1        0.0318
     48 H           2.9390   40.3150   23.3490 H       1  UNL1        0.0274
     49 H          -1.2130   40.8560   20.4740 H       1  UNL1        0.0343
     50 H          -2.6710   44.3700   20.9580 H       1  UNL1        0.0265
     51 H          -0.2590   33.4740   31.6660 H       1  UNL1        0.0275
     52 H           1.8130   41.2980   20.6880 H       1  UNL1        0.0265
     53 H           3.8790   39.1570   21.3760 H       1  UNL1        0.0265
     54 H           2.5780   39.9940   18.7280 H       1  UNL1        0.0265
     55 H           4.7040   37.8710   19.3410 H       1  UNL1        0.0263
     56 H           3.3440   38.6420   16.7050 H       1  UNL1        0.0230
     57 H          -1.1810   44.9940   21.7000 H       1  UNL1        0.0265
     58 H           1.0240   34.7000   31.5990 H       1  UNL1        0.0275
     59 C           0.3270   42.5470   23.0610 C.2     1  UNL1        0.3130
     60 O          -0.5750   42.7410   23.8670 O.2     1  UNL1       -0.2504
     61 C           1.7540   42.1490   23.4410 C.3     1  UNL1        0.0823
     62 C           1.8840   42.0170   24.9830 C.3     1  UNL1        0.0705
     63 C           1.5130   43.2780   25.7930 C.3     1  UNL1        0.0001
     64 C           0.5700   42.9730   26.9760 C.3     1  UNL1        0.0600
     65 C           1.2740   42.1870   28.0960 C.3     1  UNL1       -0.0006
     66 C           0.3180   41.7630   29.2230 C.3     1  UNL1        0.0599
     67 C           1.1060   41.2350   30.4340 C.3     1  UNL1       -0.0006
     68 C           0.2020   40.6170   31.5160 C.3     1  UNL1        0.0599
     69 C           0.9990   40.3770   32.8050 C.3     1  UNL1       -0.0006
     70 C           0.1730   39.9340   34.0230 C.3     1  UNL1        0.0599
     71 C          -0.5050   38.5600   33.9390 C.3     1  UNL1       -0.0006
     72 C           0.4500   37.3930   33.6570 C.3     1  UNL1        0.0602
     73 C          -0.1910   36.0240   33.9200 C.3     1  UNL1        0.0032
     74 C          -1.3510   35.6470   32.9920 C.3     1  UNL1        0.0786
     75 C          -0.9670   35.5050   31.5300 C.2     1  UNL1       -0.0445
     76 C          -1.5280   36.3270   30.6210 C.2     1  UNL1       -0.0604
     77 C          -1.2560   36.3900   29.2020 C.2     1  UNL1       -0.0617
     78 C          -1.8760   37.2710   28.4030 C.2     1  UNL1       -0.0618
     79 C           2.1320   40.7950   22.7830 C.3     1  UNL1       -0.0377
     80 C          -1.5750   37.4220   26.9970 C.2     1  UNL1       -0.0618
     81 C          -2.1770   38.3500   26.2400 C.2     1  UNL1       -0.0618
     82 C          -1.8330   38.5970   24.8580 C.2     1  UNL1       -0.0618
     83 C          -2.3890   39.5970   24.1590 C.2     1  UNL1       -0.0621
     84 C          -1.9680   39.9610   22.8270 C.2     1  UNL1       -0.0656
     85 C          -2.4090   41.0790   22.2300 C.2     1  UNL1       -0.0805
     86 C          -1.8610   41.6110   20.9360 C.3     1  UNL1        0.0026
     87 C          -1.0590   42.9250   21.0700 C.3     1  UNL1        0.1037
     88 C          -1.8350   44.1190   21.6190 C.3     1  UNL1       -0.0274
     89 C           0.0370   34.4260   31.2130 C.3     1  UNL1       -0.0411
     90 C           2.6070   40.9060   21.3280 C.3     1  UNL1       -0.0522
     91 O           0.2220   42.7110   21.7170 O.3     1  UNL1       -0.4611
     92 C           3.0330   39.5370   20.7890 C.3     1  UNL1       -0.0530
     93 C           3.4250   39.6140   19.3130 C.3     1  UNL1       -0.0533
     94 C           3.8410   38.2440   18.7770 C.3     1  UNL1       -0.0559
     95 C           4.1990   38.3070   17.3010 C.3     1  UNL1       -0.0653
     96 O           3.2450   41.6930   25.3170 O.3     1  UNL1       -0.3909
     97 O          -0.5880   42.2540   26.5470 O.3     1  UNL1       -0.3916
     98 O          -0.5620   40.7390   28.7530 O.3     1  UNL1       -0.3916
     99 O          -0.2990   39.3710   31.0390 O.3     1  UNL1       -0.3916
    100 O          -0.8350   40.9140   34.3010 O.3     1  UNL1       -0.3916
    101 O           1.5810   37.5080   34.5310 O.3     1  UNL1       -0.3916
    102 O          -1.8810   34.3900   33.4200 O.3     1  UNL1       -0.3874
@<TRIPOS>BOND
     1    56    95    1
     2    34    95    1
     3    41    95    1
     4    95    94    1
     5    54    93    1
     6    94    33    1
     7    94    93    1
     8    94    55    1
     9    32    93    1
    10    93    92    1
    11    27    87    1
    12    26    86    1
    13    49    86    1
    14    52    90    1
    15    92    31    1
    16    92    90    1
    17    92    53    1
    18    86    87    1
    19    86    85    1
    20    50    88    1
    21    87    88    1
    22    87    91    1
    23    30    90    1
    24    90    79    1
    25    88    57    1
    26    88    28    1
    27    91    59    1
    28    85     2    1
    29    85    84    2
    30     1    84    1
    31    79    25    1
    32    79    48    1
    33    79    61    1
    34    84    83    1
    35    59    61    1
    36    59    60    2
    37    11    61    1
    38    61    62    1
    39    83     4    1
    40    83    82    2
    41     3    82    1
    42    82    81    1
    43    62    12    1
    44    62    96    1
    45    62    63    1
    46    35    96    1
    47    13    63    1
    48    36    97    1
    49    63    42    1
    50    63    64    1
    51    81     5    1
    52    81    80    2
    53    97    64    1
    54     6    80    1
    55    64    14    1
    56    64    65    1
    57    80    78    1
    58    43    65    1
    59    37    98    1
    60    65    15    1
    61    65    66    1
    62    78     7    1
    63    78    77    2
    64    98    66    1
    65     8    77    1
    66    77    76    1
    67    66    16    1
    68    66    67    1
    69    44    67    1
    70    38    99    1
    71    29    89    1
    72    67    17    1
    73    67    68    1
    74    76     9    1
    75    76    75    2
    76    99    68    1
    77    89    75    1
    78    89    58    1
    79    89    51    1
    80    68    18    1
    81    68    69    1
    82    75    74    1
    83    45    69    1
    84    22    72    1
    85    69    19    1
    86    69    70    1
    87    74    24    1
    88    74   102    1
    89    74    73    1
    90    21    71    1
    91   102    10    1
    92    72    73    1
    93    72    71    1
    94    72   101    1
    95    47    73    1
    96    73    23    1
    97    71    70    1
    98    71    46    1
    99    70   100    1
   100    70    20    1
   101    40   101    1
   102   100    39    1
