@<TRIPOS>MOLECULE
42.12750
 102 102 0 0 0
SMALL
GASTEIGER

@<TRIPOS>ATOM
      1 H          -0.4030   47.2670   21.1880 H       1  UNL1        0.0614
      2 H           1.2140   44.8730   22.2070 H       1  UNL1        0.0573
      3 H           0.9510   49.3510   21.4800 H       1  UNL1        0.0618
      4 H           2.5910   46.7860   21.9090 H       1  UNL1        0.0617
      5 H           3.9570   48.7760   22.0740 H       1  UNL1        0.0618
      6 H           2.2580   51.3400   22.1190 H       1  UNL1        0.0618
      7 H           5.2700   50.7480   22.6540 H       1  UNL1        0.0618
      8 H           3.4800   53.2010   23.0980 H       1  UNL1        0.0618
      9 H           6.5010   52.6310   23.5000 H       1  UNL1        0.0618
     10 H           8.0690   56.3490   25.1120 H       1  UNL1        0.2102
     11 H           2.5530   40.7390   23.2390 H       1  UNL1        0.0439
     12 H           1.3970   42.9870   24.9840 H       1  UNL1        0.0602
     13 H           2.9550   43.9590   23.2760 H       1  UNL1        0.0315
     14 H           2.9360   44.7470   25.7490 H       1  UNL1        0.0595
     15 H           3.9950   46.1070   24.0190 H       1  UNL1        0.0315
     16 H           4.5540   46.5510   26.5470 H       1  UNL1        0.0595
     17 H           4.9840   48.2830   24.8770 H       1  UNL1        0.0315
     18 H           6.1700   48.4430   27.2100 H       1  UNL1        0.0595
     19 H           6.0080   50.4140   25.7730 H       1  UNL1        0.0315
     20 H           7.7560   50.4180   27.7450 H       1  UNL1        0.0595
     21 H           8.2740   52.2060   25.3090 H       1  UNL1        0.0315
     22 H           5.9880   52.5320   26.4820 H       1  UNL1        0.0595
     23 H           8.0490   54.7760   26.9060 H       1  UNL1        0.0318
     24 H           7.8170   54.2470   24.4800 H       1  UNL1        0.0641
     25 H          -0.2150   41.0600   24.4970 H       1  UNL1        0.0274
     26 H          -1.6570   45.1180   21.1200 H       1  UNL1        0.0343
     27 H          -1.7960   42.7210   21.3560 H       1  UNL1        0.0734
     28 H           0.6550   43.4970   19.7270 H       1  UNL1        0.0265
     29 H           3.5270   54.8270   24.4220 H       1  UNL1        0.0275
     30 H           1.0260   38.6960   22.9870 H       1  UNL1        0.0265
     31 H          -1.7560   39.1840   24.1820 H       1  UNL1        0.0265
     32 H          -0.6350   36.7470   22.7020 H       1  UNL1        0.0265
     33 H          -3.4000   37.3170   23.9060 H       1  UNL1        0.0263
     34 H          -3.9340   35.0090   23.2080 H       1  UNL1        0.0230
     35 H           3.4000   41.0100   25.3930 H       1  UNL1        0.2098
     36 H           4.0020   42.8760   26.4930 H       1  UNL1        0.2098
     37 H           5.9870   44.7010   26.5300 H       1  UNL1        0.2098
     38 H           7.6770   46.7870   26.5370 H       1  UNL1        0.2098
     39 H           9.1430   49.0280   26.4960 H       1  UNL1        0.2098
     40 H           6.1000   53.3300   28.6020 H       1  UNL1        0.2098
     41 H          -2.3430   34.8400   22.4460 H       1  UNL1        0.0230
     42 H           4.1920   42.7830   23.7610 H       1  UNL1        0.0315
     43 H           5.4340   45.0690   24.0220 H       1  UNL1        0.0315
     44 H           6.4530   47.4530   24.3300 H       1  UNL1        0.0315
     45 H           7.3470   49.8470   24.7640 H       1  UNL1        0.0315
     46 H           9.0320   52.4410   26.8690 H       1  UNL1        0.0315
     47 H           6.3480   54.9970   27.0730 H       1  UNL1        0.0318
     48 H           1.0490   39.9930   25.0840 H       1  UNL1        0.0274
     49 H          -1.3630   44.6260   22.7930 H       1  UNL1        0.0343
     50 H          -1.0180   43.3630   19.1990 H       1  UNL1        0.0265
     51 H           4.6150   56.2020   24.2850 H       1  UNL1        0.0275
     52 H          -0.1960   39.7640   22.2980 H       1  UNL1        0.0265
     53 H          -0.5480   38.0680   24.8230 H       1  UNL1        0.0265
     54 H          -1.8170   37.8780   22.0380 H       1  UNL1        0.0265
     55 H          -2.2220   36.1760   24.5580 H       1  UNL1        0.0263
     56 H          -3.5250   35.9900   21.7900 H       1  UNL1        0.0230
     57 H          -0.1210   41.9100   19.6880 H       1  UNL1        0.0265
     58 H           4.4150   55.3560   25.8340 H       1  UNL1        0.0275
     59 C           1.2390   42.1260   22.3200 C.2     1  UNL1        0.3130
     60 O           2.0050   42.4850   21.4370 O.2     1  UNL1       -0.2504
     61 C           1.7240   41.3860   23.5570 C.3     1  UNL1        0.0823
     62 C           2.2420   42.3960   24.6090 C.3     1  UNL1        0.0705
     63 C           3.3310   43.3670   24.1130 C.3     1  UNL1        0.0001
     64 C           3.8010   44.3260   25.2230 C.3     1  UNL1        0.0600
     65 C           4.6370   45.4850   24.6530 C.3     1  UNL1       -0.0006
     66 C           5.2840   46.3350   25.7580 C.3     1  UNL1        0.0599
     67 C           5.8270   47.6640   25.2070 C.3     1  UNL1       -0.0006
     68 C           6.6790   48.4220   26.2390 C.3     1  UNL1        0.0599
     69 C           6.9560   49.8680   25.7900 C.3     1  UNL1       -0.0006
     70 C           7.9880   50.5770   26.6860 C.3     1  UNL1        0.0599
     71 C           8.1150   52.0770   26.3850 C.3     1  UNL1       -0.0006
     72 C           6.9320   52.9200   26.8740 C.3     1  UNL1        0.0602
     73 C           7.0890   54.4070   26.5180 C.3     1  UNL1        0.0032
     74 C           6.9930   54.7280   25.0180 C.3     1  UNL1        0.0786
     75 C           5.6590   54.3260   24.4080 C.2     1  UNL1       -0.0445
     76 C           5.5860   53.2030   23.6640 C.2     1  UNL1       -0.0604
     77 C           4.3940   52.6160   23.0960 C.2     1  UNL1       -0.0617
     78 C           4.3680   51.3560   22.6360 C.2     1  UNL1       -0.0618
     79 C           0.6490   40.4630   24.1770 C.3     1  UNL1       -0.0377
     80 C           3.1480   50.7190   22.1930 C.2     1  UNL1       -0.0618
     81 C           3.0710   49.4000   21.9650 C.2     1  UNL1       -0.0618
     82 C           1.8260   48.7310   21.6630 C.2     1  UNL1       -0.0618
     83 C           1.7150   47.3960   21.6920 C.2     1  UNL1       -0.0621
     84 C           0.4610   46.6990   21.5240 C.2     1  UNL1       -0.0656
     85 C           0.3420   45.4010   21.8380 C.2     1  UNL1       -0.0805
     86 C          -0.9380   44.6180   21.7810 C.3     1  UNL1        0.0026
     87 C          -0.7860   43.1490   21.3420 C.3     1  UNL1        0.1037
     88 C          -0.2850   42.9690   19.9110 C.3     1  UNL1       -0.0274
     89 C           4.4910   55.2190   24.7510 C.3     1  UNL1       -0.0411
     90 C           0.1790   39.3460   23.2380 C.3     1  UNL1       -0.0522
     91 O          -0.0900   42.3880   22.3670 O.3     1  UNL1       -0.4611
     92 C          -0.9290   38.5210   23.8990 C.3     1  UNL1       -0.0530
     93 C          -1.4530   37.4270   22.9690 C.3     1  UNL1       -0.0533
     94 C          -2.5830   36.6380   23.6320 C.3     1  UNL1       -0.0559
     95 C          -3.1260   35.5560   22.7130 C.3     1  UNL1       -0.0653
     96 O           2.7790   41.6810   25.7370 O.3     1  UNL1       -0.3909
     97 O           4.5810   43.6070   26.1810 O.3     1  UNL1       -0.3916
     98 O           6.3560   45.5970   26.3520 O.3     1  UNL1       -0.3916
     99 O           7.9210   47.7350   26.4170 O.3     1  UNL1       -0.3916
    100 O           9.2770   50.0010   26.4360 O.3     1  UNL1       -0.3916
    101 O           6.8610   52.8050   28.2980 O.3     1  UNL1       -0.3916
    102 O           7.1640   56.1320   24.8320 O.3     1  UNL1       -0.3874
@<TRIPOS>BOND
     1    50    88    1
     2    57    88    1
     3    28    88    1
     4    88    87    1
     5    26    86    1
     6     1    84    1
     7    87    27    1
     8    87    86    1
     9    87    91    1
    10    60    59    2
    11     3    82    1
    12    84    83    1
    13    84    85    2
    14    82    83    2
    15    82    81    1
    16    83     4    1
    17    86    85    1
    18    86    49    1
    19    56    95    1
    20    85     2    1
    21    81     5    1
    22    81    80    2
    23    54    93    1
    24     6    80    1
    25    80    78    1
    26    52    90    1
    27    59    91    1
    28    59    61    1
    29    41    95    1
    30    78     7    1
    31    78    77    2
    32    32    93    1
    33    95    34    1
    34    95    94    1
    35    93    94    1
    36    93    92    1
    37    30    90    1
    38    77     8    1
    39    77    76    1
    40    90    92    1
    41    90    79    1
    42    11    61    1
    43    13    63    1
    44     9    76    1
    45    61    79    1
    46    61    62    1
    47    94    33    1
    48    94    55    1
    49    76    75    2
    50    42    63    1
    51    92    31    1
    52    92    53    1
    53    15    65    1
    54    43    65    1
    55    63    62    1
    56    63    64    1
    57    79    25    1
    58    79    48    1
    59    51    89    1
    60    44    67    1
    61    75    89    1
    62    75    74    1
    63    29    89    1
    64    24    74    1
    65    62    12    1
    66    62    96    1
    67    65    64    1
    68    65    66    1
    69    89    58    1
    70    45    69    1
    71   102    74    1
    72   102    10    1
    73    17    67    1
    74    74    73    1
    75    67    66    1
    76    67    68    1
    77    64    14    1
    78    64    97    1
    79    21    71    1
    80    35    96    1
    81    66    98    1
    82    66    16    1
    83    19    69    1
    84    69    68    1
    85    69    70    1
    86    97    36    1
    87    68    99    1
    88    68    18    1
    89    98    37    1
    90    71    70    1
    91    71    46    1
    92    71    72    1
    93    99    38    1
    94   100    39    1
    95   100    70    1
    96    22    72    1
    97    73    72    1
    98    73    23    1
    99    73    47    1
   100    70    20    1
   101    72   101    1
   102   101    40    1
