@<TRIPOS>MOLECULE
43.65749
 102 102 0 0 0
SMALL
GASTEIGER

@<TRIPOS>ATOM
      1 H          -0.7130   43.4950   19.2650 H       1  UNL1        0.0614
      2 H          -2.3850   41.5170   20.9180 H       1  UNL1        0.0573
      3 H           0.0470   42.5490   17.1660 H       1  UNL1        0.0618
      4 H          -1.3790   40.4700   18.9310 H       1  UNL1        0.0617
      5 H          -0.4500   39.4900   16.8560 H       1  UNL1        0.0618
      6 H           0.8290   41.6390   15.0630 H       1  UNL1        0.0618
      7 H           0.4540   38.5640   14.7620 H       1  UNL1        0.0618
      8 H           1.7590   40.7330   13.0240 H       1  UNL1        0.0618
      9 H           1.3930   37.6660   12.7540 H       1  UNL1        0.0618
     10 H           3.0680   36.6610    8.8950 H       1  UNL1        0.2102
     11 H           1.6340   41.0600   24.4450 H       1  UNL1        0.0439
     12 H           1.8260   41.0830   21.4070 H       1  UNL1        0.0602
     13 H           1.0760   38.9940   22.5670 H       1  UNL1        0.0315
     14 H           4.0130   38.6690   21.7260 H       1  UNL1        0.0595
     15 H           2.6530   39.4220   19.7840 H       1  UNL1        0.0315
     16 H           4.2960   37.4540   19.5010 H       1  UNL1        0.0595
     17 H           3.2220   38.4480   17.4840 H       1  UNL1        0.0315
     18 H           4.6190   36.2950   17.2660 H       1  UNL1        0.0595
     19 H           3.8130   37.4780   15.2300 H       1  UNL1        0.0315
     20 H           4.9860   35.1870   14.9800 H       1  UNL1        0.0595
     21 H           2.7560   35.6940   12.9460 H       1  UNL1        0.0315
     22 H           4.4800   37.6280   13.1350 H       1  UNL1        0.0595
     23 H           4.6530   35.9370   10.5730 H       1  UNL1        0.0318
     24 H           2.2910   36.5740   10.9490 H       1  UNL1        0.0641
     25 H           1.9760   43.7330   23.0220 H       1  UNL1        0.0274
     26 H          -3.1430   43.9460   21.5140 H       1  UNL1        0.0343
     27 H          -1.8960   44.2930   23.5930 H       1  UNL1        0.0734
     28 H          -2.8780   41.4340   23.2650 H       1  UNL1        0.0265
     29 H           3.0510   40.8110   11.3810 H       1  UNL1        0.0275
     30 H           2.2060   42.8260   25.9520 H       1  UNL1        0.0265
     31 H           2.2490   45.6160   24.6890 H       1  UNL1        0.0265
     32 H           2.4240   44.7070   27.6130 H       1  UNL1        0.0265
     33 H           2.5550   47.5040   26.3600 H       1  UNL1        0.0263
     34 H           2.8970   48.2730   28.6890 H       1  UNL1        0.0230
     35 H           4.0730   40.9180   23.1470 H       1  UNL1        0.2098
     36 H           3.1490   37.0580   23.0980 H       1  UNL1        0.2098
     37 H           2.7900   36.0950   20.7790 H       1  UNL1        0.2098
     38 H           2.8640   35.1090   18.3890 H       1  UNL1        0.2098
     39 H           3.0650   34.1580   15.9670 H       1  UNL1        0.2098
     40 H           6.5770   37.0920   12.4490 H       1  UNL1        0.2098
     41 H           2.6740   46.6230   29.2950 H       1  UNL1        0.0230
     42 H           2.4490   39.0820   23.6380 H       1  UNL1        0.0315
     43 H           1.4100   38.2180   20.1770 H       1  UNL1        0.0315
     44 H           1.8020   37.4090   17.7270 H       1  UNL1        0.0315
     45 H           2.2790   36.5900   15.3170 H       1  UNL1        0.0315
     46 H           4.1060   34.6130   12.7020 H       1  UNL1        0.0315
     47 H           5.1840   37.5730   10.6970 H       1  UNL1        0.0318
     48 H           3.3340   42.9110   23.7740 H       1  UNL1        0.0274
     49 H          -1.4720   44.4520   21.2760 H       1  UNL1        0.0343
     50 H          -3.7670   42.8490   23.8160 H       1  UNL1        0.0265
     51 H           2.9860   40.0630    9.7960 H       1  UNL1        0.0275
     52 H           0.7970   43.6510   25.3010 H       1  UNL1        0.0265
     53 H           3.6350   44.7900   25.4090 H       1  UNL1        0.0265
     54 H           1.0570   45.5530   26.8860 H       1  UNL1        0.0265
     55 H           3.9080   46.6570   27.1140 H       1  UNL1        0.0263
     56 H           1.3200   47.4820   28.5340 H       1  UNL1        0.0230
     57 H          -2.4440   42.1860   24.8010 H       1  UNL1        0.0265
     58 H           4.3860   39.7990   10.8570 H       1  UNL1        0.0275
     59 C           0.0790   41.7380   23.1800 C.2     1  UNL1        0.3130
     60 O          -0.6020   40.7580   22.9050 O.2     1  UNL1       -0.2504
     61 C           1.5720   41.6350   23.5110 C.3     1  UNL1        0.0823
     62 C           2.2640   40.8200   22.3770 C.3     1  UNL1        0.0705
     63 C           2.1260   39.3030   22.6110 C.3     1  UNL1        0.0001
     64 C           2.9510   38.4040   21.6780 C.3     1  UNL1        0.0600
     65 C           2.4870   38.4260   20.2080 C.3     1  UNL1       -0.0006
     66 C           3.2130   37.3620   19.3600 C.3     1  UNL1        0.0599
     67 C           2.8900   37.4730   17.8580 C.3     1  UNL1       -0.0006
     68 C           3.5460   36.3390   17.0410 C.3     1  UNL1        0.0599
     69 C           3.3550   36.5290   15.5250 C.3     1  UNL1       -0.0006
     70 C           3.9400   35.3600   14.7030 C.3     1  UNL1        0.0599
     71 C           3.8150   35.5570   13.1870 C.3     1  UNL1       -0.0006
     72 C           4.6660   36.6890   12.6070 C.3     1  UNL1        0.0602
     73 C           4.4340   36.8770   11.0980 C.3     1  UNL1        0.0032
     74 C           3.0230   37.3550   10.7140 C.3     1  UNL1        0.0786
     75 C           2.6380   38.6610   11.3890 C.2     1  UNL1       -0.0445
     76 C           1.8040   38.6300   12.4500 C.2     1  UNL1       -0.0604
     77 C           1.4390   39.7350   13.3050 C.2     1  UNL1       -0.0617
     78 C           0.7730   39.5590   14.4570 C.2     1  UNL1       -0.0618
     79 C           2.2430   43.0040   23.7960 C.3     1  UNL1       -0.0377
     80 C           0.4960   40.6480   15.3650 C.2     1  UNL1       -0.0618
     81 C          -0.1140   40.4780   16.5470 C.2     1  UNL1       -0.0618
     82 C          -0.3370   41.5740   17.4620 C.2     1  UNL1       -0.0618
     83 C          -0.9810   41.4380   18.6300 C.2     1  UNL1       -0.0621
     84 C          -1.1790   42.5480   19.5320 C.2     1  UNL1       -0.0656
     85 C          -1.9030   42.4570   20.6570 C.2     1  UNL1       -0.0805
     86 C          -2.1010   43.6120   21.5990 C.3     1  UNL1        0.0026
     87 C          -1.7860   43.3290   23.0780 C.3     1  UNL1        0.1037
     88 C          -2.7710   42.3940   23.7760 C.3     1  UNL1       -0.0274
     89 C           3.2960   39.9000   10.8330 C.3     1  UNL1       -0.0411
     90 C           1.8810   43.5460   25.1910 C.3     1  UNL1       -0.0522
     91 O          -0.3900   43.0050   23.2800 O.3     1  UNL1       -0.4611
     92 C           2.5450   44.8970   25.4630 C.3     1  UNL1       -0.0530
     93 C           2.1470   45.4350   26.8400 C.3     1  UNL1       -0.0533
     94 C           2.8190   46.7750   27.1360 C.3     1  UNL1       -0.0559
     95 C           2.4010   47.3180   28.4930 C.3     1  UNL1       -0.0653
     96 O           3.6590   41.1210   22.2890 O.3     1  UNL1       -0.3909
     97 O           2.8450   37.0580   22.1720 O.3     1  UNL1       -0.3916
     98 O           2.8350   36.0500   19.7960 O.3     1  UNL1       -0.3916
     99 O           2.9780   35.0770   17.4090 O.3     1  UNL1       -0.3916
    100 O           3.2130   34.1590   14.9940 O.3     1  UNL1       -0.3916
    101 O           6.0430   36.3670   12.8190 O.3     1  UNL1       -0.3916
    102 O           2.9630   37.5380    9.3010 O.3     1  UNL1       -0.3874
@<TRIPOS>BOND
     1    10   102    1
     2   102    74    1
     3    51    89    1
     4    23    73    1
     5    47    73    1
     6    74    24    1
     7    74    73    1
     8    74    75    1
     9    89    58    1
    10    89    29    1
    11    89    75    1
    12    73    72    1
    13    75    76    2
    14    40   101    1
    15    76     9    1
    16    76    77    1
    17    72   101    1
    18    72    22    1
    19    72    71    1
    20    46    71    1
    21    21    71    1
    22     8    77    1
    23    71    70    1
    24    77    78    2
    25    78     7    1
    26    78    80    1
    27    70    20    1
    28    70   100    1
    29    70    69    1
    30   100    39    1
    31     6    80    1
    32    19    69    1
    33    45    69    1
    34    80    81    2
    35    69    68    1
    36    81     5    1
    37    81    82    1
    38    68    18    1
    39    68    99    1
    40    68    67    1
    41     3    82    1
    42    99    38    1
    43    82    83    2
    44    17    67    1
    45    44    67    1
    46    67    66    1
    47    83     4    1
    48    83    84    1
    49     1    84    1
    50    66    16    1
    51    66    98    1
    52    66    65    1
    53    84    85    2
    54    15    65    1
    55    98    37    1
    56    43    65    1
    57    65    64    1
    58    85     2    1
    59    85    86    1
    60    49    86    1
    61    12    62    1
    62    26    86    1
    63    86    87    1
    64    64    14    1
    65    64    97    1
    66    64    63    1
    67    97    36    1
    68    96    62    1
    69    96    35    1
    70    62    63    1
    71    62    61    1
    72    13    63    1
    73    63    42    1
    74    60    59    2
    75    25    79    1
    76    87    91    1
    77    87    27    1
    78    87    88    1
    79    59    91    1
    80    59    61    1
    81    28    88    1
    82    61    79    1
    83    61    11    1
    84    48    79    1
    85    88    50    1
    86    88    57    1
    87    79    90    1
    88    31    92    1
    89    90    52    1
    90    90    92    1
    91    90    30    1
    92    53    92    1
    93    92    93    1
    94    33    94    1
    95    93    54    1
    96    93    94    1
    97    93    32    1
    98    55    94    1
    99    94    95    1
   100    95    56    1
   101    95    34    1
   102    95    41    1
