@<TRIPOS>MOLECULE
58.45104
 102 102 0 0 0
SMALL
GASTEIGER

@<TRIPOS>ATOM
      1 H          -1.0100   43.9670   24.5060 H       1  UNL1        0.0614
      2 H           1.1800   46.0970   24.1760 H       1  UNL1        0.0573
      3 H          -0.9440   42.8380   26.6010 H       1  UNL1        0.0618
      4 H           1.2260   45.0120   26.4000 H       1  UNL1        0.0617
      5 H           1.4270   43.6120   28.4630 H       1  UNL1        0.0618
      6 H          -0.8820   41.5850   28.6510 H       1  UNL1        0.0618
      7 H           1.6620   42.0400   30.3790 H       1  UNL1        0.0618
      8 H          -0.8560   40.3110   30.7010 H       1  UNL1        0.0618
      9 H           1.8840   40.3560   32.1250 H       1  UNL1        0.0618
     10 H           1.4410   38.8050   35.9720 H       1  UNL1        0.2102
     11 H           1.0240   41.9140   23.8480 H       1  UNL1        0.0439
     12 H           1.1350   40.4650   21.5210 H       1  UNL1        0.0602
     13 H           1.0190   38.4500   22.8260 H       1  UNL1        0.0315
     14 H           2.6540   39.3500   24.7760 H       1  UNL1        0.0595
     15 H           1.7450   37.0620   24.6300 H       1  UNL1        0.0315
     16 H           2.7620   38.0120   26.8450 H       1  UNL1        0.0595
     17 H           2.0810   35.5080   26.2990 H       1  UNL1        0.0315
     18 H           2.5280   34.7180   28.5800 H       1  UNL1        0.0595
     19 H           1.3160   36.4940   29.8620 H       1  UNL1        0.0315
     20 H           3.2310   35.0780   30.9100 H       1  UNL1        0.0595
     21 H           3.0100   37.9330   31.9990 H       1  UNL1        0.0315
     22 H           0.7330   36.8150   31.9170 H       1  UNL1        0.0595
     23 H           1.9090   36.7560   34.7500 H       1  UNL1        0.0318
     24 H           2.2270   39.0280   33.9250 H       1  UNL1        0.0641
     25 H           3.3940   41.5580   24.4190 H       1  UNL1        0.0274
     26 H           0.9060   45.7240   21.8700 H       1  UNL1        0.0343
     27 H          -1.7360   44.2480   22.2200 H       1  UNL1        0.0734
     28 H           0.1040   44.4810   19.7930 H       1  UNL1        0.0265
     29 H          -1.8160   39.6240   32.5200 H       1  UNL1        0.0275
     30 H           4.0810   43.5990   22.2600 H       1  UNL1        0.0265
     31 H           5.7800   41.8310   24.0790 H       1  UNL1        0.0265
     32 H           6.5280   44.0930   22.1510 H       1  UNL1        0.0265
     33 H           8.2600   42.3340   23.9720 H       1  UNL1        0.0263
     34 H          10.1260   43.7380   23.1580 H       1  UNL1        0.0230
     35 H           3.5680   39.9030   22.8690 H       1  UNL1        0.2098
     36 H           1.5460   40.9370   25.7200 H       1  UNL1        0.2098
     37 H           0.7270   39.1820   27.2140 H       1  UNL1        0.2098
     38 H           4.2060   35.3090   27.2490 H       1  UNL1        0.2098
     39 H           4.7690   36.3460   29.5640 H       1  UNL1        0.2098
     40 H           0.4920   34.8810   33.0680 H       1  UNL1        0.2098
     41 H           9.0330   44.6060   22.0660 H       1  UNL1        0.0230
     42 H          -0.0720   39.7000   23.4420 H       1  UNL1        0.0315
     43 H           0.1800   37.6210   25.2610 H       1  UNL1        0.0315
     44 H           0.7190   35.8090   27.3920 H       1  UNL1        0.0315
     45 H           2.5840   37.6600   29.4160 H       1  UNL1        0.0315
     46 H           3.6390   36.5510   32.8650 H       1  UNL1        0.0315
     47 H           0.2260   36.7590   34.3720 H       1  UNL1        0.0318
     48 H           2.8780   43.2220   24.2880 H       1  UNL1        0.0274
     49 H          -0.6500   46.4230   22.2620 H       1  UNL1        0.0343
     50 H          -1.4800   45.2370   20.0060 H       1  UNL1        0.0265
     51 H          -1.5220   39.0680   34.1520 H       1  UNL1        0.0275
     52 H           4.3910   41.8870   21.9960 H       1  UNL1        0.0265
     53 H           5.4450   43.5440   24.3460 H       1  UNL1        0.0265
     54 H           6.8630   42.3800   21.8890 H       1  UNL1        0.0265
     55 H           7.9220   44.0460   24.2370 H       1  UNL1        0.0263
     56 H           9.3730   42.8850   21.7990 H       1  UNL1        0.0230
     57 H          -1.3290   43.4680   19.9000 H       1  UNL1        0.0265
     58 H          -1.3520   37.9400   32.7930 H       1  UNL1        0.0275
     59 C           1.2390   42.8790   22.0220 C.2     1  UNL1        0.3130
     60 O           1.9090   43.4950   21.2100 O.2     1  UNL1       -0.2504
     61 C           1.7640   41.8670   23.0370 C.3     1  UNL1        0.0823
     62 C           1.7050   40.4400   22.4580 C.3     1  UNL1        0.0705
     63 C           0.9830   39.4100   23.3580 C.3     1  UNL1        0.0001
     64 C           1.5680   39.2080   24.7680 C.3     1  UNL1        0.0600
     65 C           1.2640   37.7910   25.2930 C.3     1  UNL1       -0.0006
     66 C           1.7540   37.5950   26.7400 C.3     1  UNL1        0.0599
     67 C           1.7430   36.1150   27.1480 C.3     1  UNL1       -0.0006
     68 C           2.6550   35.7810   28.3430 C.3     1  UNL1        0.0599
     69 C           2.3750   36.6010   29.6120 C.3     1  UNL1       -0.0006
     70 C           3.2640   36.1660   30.7920 C.3     1  UNL1        0.0599
     71 C           2.8930   36.8500   32.1160 C.3     1  UNL1       -0.0006
     72 C           1.4950   36.5070   32.6380 C.3     1  UNL1        0.0602
     73 C           1.1930   37.1350   34.0060 C.3     1  UNL1        0.0032
     74 C           1.1970   38.6700   34.0430 C.3     1  UNL1        0.0786
     75 C           0.2890   39.3150   33.0120 C.2     1  UNL1       -0.0445
     76 C           0.8180   40.1330   32.0790 C.2     1  UNL1       -0.0604
     77 C           0.1280   40.7050   30.9440 C.2     1  UNL1       -0.0617
     78 C           0.6780   41.6360   30.1500 C.2     1  UNL1       -0.0618
     79 C           3.0850   42.3200   23.6950 C.3     1  UNL1       -0.0377
     80 C           0.0290   42.1040   28.9460 C.2     1  UNL1       -0.0618
     81 C           0.5200   43.0860   28.1740 C.2     1  UNL1       -0.0618
     82 C          -0.0940   43.4420   26.9150 C.2     1  UNL1       -0.0618
     83 C           0.3700   44.4080   26.1070 C.2     1  UNL1       -0.0621
     84 C          -0.1790   44.6110   24.7860 C.2     1  UNL1       -0.0656
     85 C           0.3490   45.4550   23.8850 C.2     1  UNL1       -0.0805
     86 C          -0.0250   45.5360   22.4190 C.3     1  UNL1        0.0026
     87 C          -0.7210   44.2940   21.8070 C.3     1  UNL1        0.1037
     88 C          -0.8640   44.3790   20.2910 C.3     1  UNL1       -0.0274
     89 C          -1.1760   38.9690   33.1180 C.3     1  UNL1       -0.0411
     90 C           4.2650   42.6480   22.7710 C.3     1  UNL1       -0.0522
     91 O          -0.1010   43.0490   22.2150 O.3     1  UNL1       -0.4611
     92 C           5.5660   42.7780   23.5700 C.3     1  UNL1       -0.0530
     93 C           6.7420   43.1470   22.6640 C.3     1  UNL1       -0.0533
     94 C           8.0380   43.2790   23.4620 C.3     1  UNL1       -0.0559
     95 C           9.2090   43.6490   22.5660 C.3     1  UNL1       -0.0653
     96 O           2.9780   39.9090   22.0980 O.3     1  UNL1       -0.3909
     97 O           0.9800   40.1450   25.6740 O.3     1  UNL1       -0.3916
     98 O           0.8820   38.3040   27.6220 O.3     1  UNL1       -0.3916
     99 O           4.0250   35.9540   27.9570 O.3     1  UNL1       -0.3916
    100 O           4.6260   36.5220   30.5180 O.3     1  UNL1       -0.3916
    101 O           1.3940   35.0860   32.7650 O.3     1  UNL1       -0.3916
    102 O           0.7680   39.0990   35.3350 O.3     1  UNL1       -0.3874
@<TRIPOS>BOND
     1    28    88    1
     2    57    88    1
     3    50    88    1
     4    88    87    1
     5    60    59    2
     6    12    62    1
     7    56    95    1
     8    87    91    1
     9    87    27    1
    10    87    86    1
    11    26    86    1
    12    54    93    1
    13    52    90    1
    14    59    91    1
    15    59    61    1
    16    41    95    1
    17    96    62    1
    18    96    35    1
    19    32    93    1
    20    30    90    1
    21    49    86    1
    22    86    85    1
    23    62    61    1
    24    62    63    1
    25    95    34    1
    26    95    94    1
    27    93    94    1
    28    93    92    1
    29    90    92    1
    30    90    79    1
    31    13    63    1
    32    61    79    1
    33    61    11    1
    34    63    42    1
    35    63    64    1
    36    94    33    1
    37    94    55    1
    38    92    31    1
    39    92    53    1
    40    79    48    1
    41    79    25    1
    42    85     2    1
    43    85    84    2
    44     1    84    1
    45    15    65    1
    46    64    14    1
    47    64    65    1
    48    64    97    1
    49    84    83    1
    50    43    65    1
    51    65    66    1
    52    97    36    1
    53    83     4    1
    54    83    82    2
    55    17    67    1
    56     3    82    1
    57    66    16    1
    58    66    67    1
    59    66    98    1
    60    82    81    1
    61    67    44    1
    62    67    68    1
    63    37    98    1
    64    38    99    1
    65    99    68    1
    66    81     5    1
    67    81    80    2
    68    68    18    1
    69    68    69    1
    70     6    80    1
    71    80    78    1
    72    45    69    1
    73    39   100    1
    74    69    19    1
    75    69    70    1
    76    78     7    1
    77    78    77    2
    78   100    70    1
    79     8    77    1
    80    70    20    1
    81    70    71    1
    82    77    76    1
    83    22    72    1
    84    21    71    1
    85    76     9    1
    86    76    75    2
    87    71    72    1
    88    71    46    1
    89    29    89    1
    90    72   101    1
    91    72    73    1
    92   101    40    1
    93    58    89    1
    94    75    89    1
    95    75    74    1
    96    89    51    1
    97    24    74    1
    98    73    74    1
    99    73    47    1
   100    73    23    1
   101    74   102    1
   102   102    10    1
