@<TRIPOS>MOLECULE
47.78727
 102 102 0 0 0
SMALL
GASTEIGER

@<TRIPOS>ATOM
      1 H           2.2900   44.4180   21.8180 H       1  UNL1        0.0614
      2 H           2.8500   43.1530   19.0740 H       1  UNL1        0.0573
      3 H           4.2500   45.0030   23.0160 H       1  UNL1        0.0618
      4 H           4.8990   44.0040   20.1790 H       1  UNL1        0.0617
      5 H           6.9350   44.5350   21.5150 H       1  UNL1        0.0618
      6 H           6.1940   45.5130   24.3360 H       1  UNL1        0.0618
      7 H           8.9040   44.8430   22.9630 H       1  UNL1        0.0618
      8 H           8.1320   45.8660   25.7510 H       1  UNL1        0.0618
      9 H          10.7780   44.9120   24.4510 H       1  UNL1        0.0618
     10 H          13.9430   46.3580   26.6770 H       1  UNL1        0.2102
     11 H           0.8980   40.5420   23.8580 H       1  UNL1        0.0439
     12 H           2.9510   41.9960   22.9000 H       1  UNL1        0.0602
     13 H           2.9630   39.5820   23.2010 H       1  UNL1        0.0315
     14 H           5.2100   39.1530   23.2230 H       1  UNL1        0.0595
     15 H           5.7110   39.5770   25.5470 H       1  UNL1        0.0315
     16 H           7.6510   39.6710   23.7800 H       1  UNL1        0.0595
     17 H           8.1740   39.3470   26.1230 H       1  UNL1        0.0315
     18 H          10.0950   40.2780   24.5980 H       1  UNL1        0.0595
     19 H          10.4560   39.2900   26.8640 H       1  UNL1        0.0315
     20 H          12.5700   40.2200   27.4660 H       1  UNL1        0.0595
     21 H          12.2130   42.5730   25.5550 H       1  UNL1        0.0315
     22 H          10.8700   43.1000   27.6160 H       1  UNL1        0.0595
     23 H          13.7000   44.2780   27.8180 H       1  UNL1        0.0318
     24 H          12.6900   44.8950   25.6360 H       1  UNL1        0.0641
     25 H           1.1900   42.6430   26.0660 H       1  UNL1        0.0274
     26 H           0.7540   42.0640   19.4790 H       1  UNL1        0.0343
     27 H           0.0200   44.1850   21.5620 H       1  UNL1        0.0734
     28 H          -1.5550   41.7570   20.5420 H       1  UNL1        0.0265
     29 H           9.2020   46.7840   27.3570 H       1  UNL1        0.0275
     30 H          -0.6810   40.2360   25.7870 H       1  UNL1        0.0265
     31 H          -0.4970   42.5070   27.8410 H       1  UNL1        0.0265
     32 H          -2.4020   40.1130   27.6870 H       1  UNL1        0.0265
     33 H          -2.1850   42.4250   29.6930 H       1  UNL1        0.0263
     34 H          -3.9960   41.2520   30.8960 H       1  UNL1        0.0230
     35 H           3.5170   42.1160   25.6750 H       1  UNL1        0.2098
     36 H           4.6960   40.9720   21.8360 H       1  UNL1        0.2098
     37 H           6.8940   41.8500   23.1810 H       1  UNL1        0.2098
     38 H           9.0830   42.3870   24.6530 H       1  UNL1        0.2098
     39 H          12.5340   39.0400   25.6160 H       1  UNL1        0.2098
     40 H          11.8360   42.8580   29.6230 H       1  UNL1        0.2098
     41 H          -4.1000   40.0340   29.6140 H       1  UNL1        0.0230
     42 H           3.3200   39.7300   24.9160 H       1  UNL1        0.0315
     43 H           5.6020   41.3280   25.3170 H       1  UNL1        0.0315
     44 H           7.8290   41.0420   26.5020 H       1  UNL1        0.0315
     45 H          10.1780   40.8570   27.6160 H       1  UNL1        0.0315
     46 H          13.5870   42.1660   26.5370 H       1  UNL1        0.0315
     47 H          12.3390   44.8850   28.6820 H       1  UNL1        0.0318
     48 H           1.6330   40.9500   26.2810 H       1  UNL1        0.0274
     49 H           0.3210   43.7310   19.0920 H       1  UNL1        0.0343
     50 H          -1.9490   43.4590   20.1990 H       1  UNL1        0.0265
     51 H          10.7950   47.1330   27.9870 H       1  UNL1        0.0275
     52 H          -1.1670   41.9080   25.4980 H       1  UNL1        0.0265
     53 H          -0.0480   40.8260   28.1370 H       1  UNL1        0.0265
     54 H          -2.8540   41.7880   27.3600 H       1  UNL1        0.0265
     55 H          -1.7380   40.7500   30.0230 H       1  UNL1        0.0263
     56 H          -4.5490   41.7190   29.2790 H       1  UNL1        0.0230
     57 H          -2.0440   42.8180   21.8540 H       1  UNL1        0.0265
     58 H          10.0050   45.5950   28.3900 H       1  UNL1        0.0275
     59 C           0.5780   42.5760   23.4040 C.2     1  UNL1        0.3130
     60 O           0.1020   43.6090   23.8530 O.2     1  UNL1       -0.2504
     61 C           1.2930   41.5030   24.2150 C.3     1  UNL1        0.0823
     62 C           2.8100   41.5940   23.9060 C.3     1  UNL1        0.0705
     63 C           3.4810   40.2070   23.9420 C.3     1  UNL1        0.0001
     64 C           4.9850   40.1580   23.6020 C.3     1  UNL1        0.0600
     65 C           5.8820   40.3890   24.8290 C.3     1  UNL1       -0.0006
     66 C           7.3750   40.4750   24.4710 C.3     1  UNL1        0.0599
     67 C           8.2430   40.3710   25.7370 C.3     1  UNL1       -0.0006
     68 C           9.7120   40.7630   25.5030 C.3     1  UNL1        0.0599
     69 C          10.5690   40.3720   26.7140 C.3     1  UNL1       -0.0006
     70 C          12.0730   40.6670   26.5950 C.3     1  UNL1        0.0599
     71 C          12.4880   42.1440   26.5250 C.3     1  UNL1       -0.0006
     72 C          11.9580   43.0060   27.6770 C.3     1  UNL1        0.0602
     73 C          12.6100   44.3940   27.7360 C.3     1  UNL1        0.0032
     74 C          12.2930   45.3290   26.5610 C.3     1  UNL1        0.0786
     75 C          10.8230   45.6710   26.4040 C.2     1  UNL1       -0.0445
     76 C          10.1950   45.3760   25.2480 C.2     1  UNL1       -0.0604
     77 C           8.7880   45.5320   24.9530 C.2     1  UNL1       -0.0617
     78 C           8.2620   45.2030   23.7630 C.2     1  UNL1       -0.0618
     79 C           0.9770   41.6250   25.7180 C.3     1  UNL1       -0.0377
     80 C           6.8390   45.2270   23.5070 C.2     1  UNL1       -0.0618
     81 C           6.2990   44.8450   22.3400 C.2     1  UNL1       -0.0618
     82 C           4.8680   44.7490   22.1560 C.2     1  UNL1       -0.0618
     83 C           4.2920   44.2920   21.0330 C.2     1  UNL1       -0.0621
     84 C           2.8630   44.0880   20.9540 C.2     1  UNL1       -0.0656
     85 C           2.2560   43.4690   19.9300 C.2     1  UNL1       -0.0805
     86 C           0.7920   43.0960   19.8520 C.3     1  UNL1        0.0026
     87 C          -0.0200   43.1650   21.1630 C.3     1  UNL1        0.1037
     88 C          -1.4760   42.7830   20.9180 C.3     1  UNL1       -0.0274
     89 C          10.1670   46.3280   27.5930 C.3     1  UNL1       -0.0411
     90 C          -0.4750   41.2760   26.0660 C.3     1  UNL1       -0.0522
     91 O           0.5390   42.2050   22.0890 O.3     1  UNL1       -0.4611
     92 C          -0.7270   41.4700   27.5640 C.3     1  UNL1       -0.0530
     93 C          -2.1740   41.1540   27.9430 C.3     1  UNL1       -0.0533
     94 C          -2.4130   41.3840   29.4350 C.3     1  UNL1       -0.0559
     95 C          -3.8490   41.0780   29.8260 C.3     1  UNL1       -0.0653
     96 O           3.4580   42.5050   24.7870 O.3     1  UNL1       -0.3909
     97 O           5.3350   41.0690   22.5650 O.3     1  UNL1       -0.3916
     98 O           7.6360   41.7170   23.8150 O.3     1  UNL1       -0.3916
     99 O           9.7750   42.1730   25.3190 O.3     1  UNL1       -0.3916
    100 O          12.6060   39.9950   25.4480 O.3     1  UNL1       -0.3916
    101 O          12.2540   42.3400   28.9130 O.3     1  UNL1       -0.3916
    102 O          12.9960   46.5570   26.7640 O.3     1  UNL1       -0.3874
@<TRIPOS>BOND
     1     2    85    1
     2    49    86    1
     3    26    86    1
     4    86    85    1
     5    86    87    1
     6    85    84    2
     7     4    83    1
     8    50    88    1
     9    28    88    1
    10    88    87    1
    11    88    57    1
    12    84    83    1
    13    84     1    1
    14    83    82    2
    15    87    27    1
    16    87    91    1
    17     5    81    1
    18    36    97    1
    19    91    59    1
    20    82    81    1
    21    82     3    1
    22    81    80    2
    23    97    64    1
    24    12    62    1
    25     7    78    1
    26    37    98    1
    27    13    63    1
    28    14    64    1
    29    59    60    2
    30    59    61    1
    31    80    78    1
    32    80     6    1
    33    64    63    1
    34    64    65    1
    35    78    77    2
    36    16    66    1
    37    98    66    1
    38    11    61    1
    39    62    63    1
    40    62    61    1
    41    62    96    1
    42    63    42    1
    43    61    79    1
    44     9    76    1
    45    66    65    1
    46    66    67    1
    47    18    68    1
    48    38    99    1
    49    96    35    1
    50    65    43    1
    51    65    15    1
    52    77    76    1
    53    77     8    1
    54    76    75    2
    55    99    68    1
    56   100    39    1
    57   100    70    1
    58    52    90    1
    59    68    67    1
    60    68    69    1
    61    21    71    1
    62    24    74    1
    63    79    90    1
    64    79    25    1
    65    79    48    1
    66    67    17    1
    67    67    44    1
    68    30    90    1
    69    90    92    1
    70    75    74    1
    71    75    89    1
    72    71    46    1
    73    71    70    1
    74    71    72    1
    75    74   102    1
    76    74    73    1
    77    70    69    1
    78    70    20    1
    79    10   102    1
    80    69    19    1
    81    69    45    1
    82    29    89    1
    83    54    93    1
    84    92    31    1
    85    92    93    1
    86    92    53    1
    87    89    51    1
    88    89    58    1
    89    22    72    1
    90    72    73    1
    91    72   101    1
    92    32    93    1
    93    73    23    1
    94    73    47    1
    95    93    94    1
    96   101    40    1
    97    56    95    1
    98    94    33    1
    99    94    95    1
   100    94    55    1
   101    41    95    1
   102    95    34    1
