@<TRIPOS>MOLECULE
35.92192
 102 102 0 0 0
SMALL
GASTEIGER

@<TRIPOS>ATOM
      1 H          -0.6020   46.6930   22.1300 H       1  UNL1        0.0614
      2 H          -2.1260   44.1480   21.3200 H       1  UNL1        0.0573
      3 H          -1.9210   47.9540   23.8550 H       1  UNL1        0.0618
      4 H          -2.8800   45.0570   23.4580 H       1  UNL1        0.0617
      5 H          -3.6930   46.0520   25.5390 H       1  UNL1        0.0618
      6 H          -3.5340   49.1210   25.4330 H       1  UNL1        0.0618
      7 H          -4.6720   47.1260   27.5070 H       1  UNL1        0.0618
      8 H          -5.4910   50.0050   26.8110 H       1  UNL1        0.0618
      9 H          -5.8900   48.3040   29.3220 H       1  UNL1        0.0618
     10 H          -9.2920   50.3120   31.2850 H       1  UNL1        0.2102
     11 H           1.4900   42.0860   23.2670 H       1  UNL1        0.0439
     12 H          -0.9370   40.3050   23.8230 H       1  UNL1        0.0602
     13 H          -1.2380   42.8360   24.0770 H       1  UNL1        0.0315
     14 H          -2.5040   41.1290   25.4900 H       1  UNL1        0.0595
     15 H          -2.9510   43.5910   25.6470 H       1  UNL1        0.0315
     16 H          -4.1970   41.9560   27.1740 H       1  UNL1        0.0595
     17 H          -4.7610   44.4000   27.0860 H       1  UNL1        0.0315
     18 H          -6.0170   42.9250   28.7330 H       1  UNL1        0.0595
     19 H          -6.5530   45.3550   28.4220 H       1  UNL1        0.0315
     20 H          -7.8950   44.0740   30.1650 H       1  UNL1        0.0595
     21 H          -7.1560   46.9050   31.0670 H       1  UNL1        0.0315
     22 H          -8.1410   46.7850   28.6500 H       1  UNL1        0.0595
     23 H          -9.9050   48.0710   30.8060 H       1  UNL1        0.0318
     24 H          -7.5690   49.0270   30.8220 H       1  UNL1        0.0641
     25 H           2.3120   39.8080   23.1430 H       1  UNL1        0.0274
     26 H           0.5670   45.3540   20.4450 H       1  UNL1        0.0343
     27 H          -0.8230   42.7430   19.5900 H       1  UNL1        0.0734
     28 H           1.9870   43.7990   19.0000 H       1  UNL1        0.0265
     29 H          -7.7130   50.3680   26.7250 H       1  UNL1        0.0275
     30 H          -0.0250   39.2300   21.2410 H       1  UNL1        0.0265
     31 H           2.3210   37.4670   22.1070 H       1  UNL1        0.0265
     32 H          -0.0320   36.9670   20.2050 H       1  UNL1        0.0265
     33 H           2.2760   35.1410   21.0650 H       1  UNL1        0.0263
     34 H           1.2870   33.5410   19.4580 H       1  UNL1        0.0230
     35 H           1.4340   40.7650   25.3280 H       1  UNL1        0.2098
     36 H          -0.5320   40.4490   26.5730 H       1  UNL1        0.2098
     37 H          -2.1200   41.6060   28.3750 H       1  UNL1        0.2098
     38 H          -3.9420   42.6970   29.9930 H       1  UNL1        0.2098
     39 H          -5.8400   43.8450   31.4560 H       1  UNL1        0.2098
     40 H         -10.3370   46.1950   28.5870 H       1  UNL1        0.2098
     41 H          -0.0500   34.6560   19.1280 H       1  UNL1        0.0230
     42 H           0.0640   42.7920   25.2810 H       1  UNL1        0.0315
     43 H          -1.7060   43.7200   26.9060 H       1  UNL1        0.0315
     44 H          -3.5540   44.7060   28.3500 H       1  UNL1        0.0315
     45 H          -5.3830   45.7620   29.6910 H       1  UNL1        0.0315
     46 H          -8.5650   46.0160   31.5950 H       1  UNL1        0.0315
     47 H         -10.0520   48.3940   29.1160 H       1  UNL1        0.0318
     48 H           2.1660   40.4600   21.5200 H       1  UNL1        0.0274
     49 H          -0.7540   45.2250   19.2710 H       1  UNL1        0.0343
     50 H           0.6540   43.6850   17.8260 H       1  UNL1        0.0265
     51 H          -8.2360   51.4180   28.0440 H       1  UNL1        0.0275
     52 H           0.1920   38.5260   22.8450 H       1  UNL1        0.0265
     53 H           2.1350   38.1890   20.5060 H       1  UNL1        0.0265
     54 H           0.1520   36.2420   21.8030 H       1  UNL1        0.0265
     55 H           2.1070   35.8760   19.4690 H       1  UNL1        0.0263
     56 H           0.1150   33.9180   20.7330 H       1  UNL1        0.0230
     57 H           1.3570   42.2210   18.5490 H       1  UNL1        0.0265
     58 H          -9.2260   50.0300   27.5440 H       1  UNL1        0.0275
     59 C          -0.0600   41.9180   21.8160 C.2     1  UNL1        0.3130
     60 O          -1.2470   41.6780   21.6360 O.2     1  UNL1       -0.2504
     61 C           0.7730   41.3220   22.9360 C.3     1  UNL1        0.0823
     62 C          -0.1240   40.9680   24.1400 C.3     1  UNL1        0.0705
     63 C          -0.7400   42.2050   24.8190 C.3     1  UNL1        0.0001
     64 C          -1.7560   41.8130   25.9070 C.3     1  UNL1        0.0600
     65 C          -2.4610   43.0550   26.4680 C.3     1  UNL1       -0.0006
     66 C          -3.4980   42.7110   27.5500 C.3     1  UNL1        0.0599
     67 C          -4.2720   43.9690   27.9670 C.3     1  UNL1       -0.0006
     68 C          -5.3240   43.7090   29.0590 C.3     1  UNL1        0.0599
     69 C          -6.1010   45.0030   29.3540 C.3     1  UNL1       -0.0006
     70 C          -7.1780   44.8530   30.4430 C.3     1  UNL1        0.0599
     71 C          -7.9040   46.1780   30.7320 C.3     1  UNL1       -0.0006
     72 C          -8.7300   46.7380   29.5690 C.3     1  UNL1        0.0602
     73 C          -9.3120   48.1260   29.8820 C.3     1  UNL1        0.0032
     74 C          -8.2690   49.2500   30.0100 C.3     1  UNL1        0.0786
     75 C          -7.5020   49.5150   28.7240 C.2     1  UNL1       -0.0445
     76 C          -6.2920   48.9480   28.5390 C.2     1  UNL1       -0.0604
     77 C          -5.4510   49.0740   27.3700 C.2     1  UNL1       -0.0617
     78 C          -4.6650   48.0680   26.9620 C.2     1  UNL1       -0.0618
     79 C           1.5820   40.1270   22.3880 C.3     1  UNL1       -0.0377
     80 C          -3.8070   48.1350   25.8010 C.2     1  UNL1       -0.0618
     81 C          -3.3670   47.0280   25.1860 C.2     1  UNL1       -0.0618
     82 C          -2.4690   47.0350   24.0540 C.2     1  UNL1       -0.0618
     83 C          -2.2950   45.9560   23.2770 C.2     1  UNL1       -0.0621
     84 C          -1.3470   45.9030   22.1880 C.2     1  UNL1       -0.0656
     85 C          -1.3510   44.9130   21.2820 C.2     1  UNL1       -0.0805
     86 C          -0.3320   44.7820   20.1810 C.3     1  UNL1        0.0026
     87 C           0.0610   43.3210   19.8900 C.3     1  UNL1        0.1037
     88 C           1.0680   43.2590   18.7450 C.3     1  UNL1       -0.0274
     89 C          -8.2000   50.3780   27.7030 C.3     1  UNL1       -0.0411
     90 C           0.7280   38.9220   21.9750 C.3     1  UNL1       -0.0522
     91 O           0.7070   42.7320   21.0380 O.3     1  UNL1       -0.4611
     92 C           1.5820   37.8040   21.3710 C.3     1  UNL1       -0.0530
     93 C           0.7080   36.6240   20.9390 C.3     1  UNL1       -0.0533
     94 C           1.5450   35.4990   20.3310 C.3     1  UNL1       -0.0559
     95 C           0.6700   34.3370   19.8870 C.3     1  UNL1       -0.0653
     96 O           0.6290   40.2500   25.1300 O.3     1  UNL1       -0.3909
     97 O          -1.1020   41.1370   26.9830 O.3     1  UNL1       -0.3916
     98 O          -2.8550   42.1720   28.7080 O.3     1  UNL1       -0.3916
     99 O          -4.7000   43.2670   30.2650 O.3     1  UNL1       -0.3916
    100 O          -6.5710   44.4640   31.6810 O.3     1  UNL1       -0.3916
    101 O          -9.8060   45.8310   29.3170 O.3     1  UNL1       -0.3916
    102 O          -8.9350   50.4540   30.3920 O.3     1  UNL1       -0.3874
@<TRIPOS>BOND
     1    50    88    1
     2    57    88    1
     3    88    28    1
     4    88    87    1
     5    41    95    1
     6    49    86    1
     7    34    95    1
     8    55    94    1
     9    27    87    1
    10    95    94    1
    11    95    56    1
    12    87    86    1
    13    87    91    1
    14    86    26    1
    15    86    85    1
    16    32    93    1
    17    94    93    1
    18    94    33    1
    19    53    92    1
    20    93    92    1
    21    93    54    1
    22    91    59    1
    23    30    90    1
    24    85     2    1
    25    85    84    2
    26    92    90    1
    27    92    31    1
    28    48    79    1
    29    60    59    2
    30    59    61    1
    31    90    79    1
    32    90    52    1
    33     1    84    1
    34    84    83    1
    35    79    61    1
    36    79    25    1
    37    61    11    1
    38    61    62    1
    39    83     4    1
    40    83    82    2
    41    12    62    1
    42     3    82    1
    43    82    81    1
    44    13    63    1
    45    62    63    1
    46    62    96    1
    47    63    42    1
    48    63    64    1
    49    96    35    1
    50    81     5    1
    51    81    80    2
    52     6    80    1
    53    14    64    1
    54    15    65    1
    55    80    78    1
    56    64    65    1
    57    64    97    1
    58    65    43    1
    59    65    66    1
    60    36    97    1
    61    29    89    1
    62     8    77    1
    63    78    77    2
    64    78     7    1
    65    17    67    1
    66    16    66    1
    67    77    76    1
    68    58    89    1
    69    66    67    1
    70    66    98    1
    71    89    51    1
    72    89    75    1
    73    67    44    1
    74    67    68    1
    75    37    98    1
    76    19    69    1
    77    76    75    2
    78    76     9    1
    79    40   101    1
    80    22    72    1
    81    75    74    1
    82    18    68    1
    83    68    69    1
    84    68    99    1
    85    47    73    1
    86   101    72    1
    87    69    45    1
    88    69    70    1
    89    72    73    1
    90    72    71    1
    91    73    74    1
    92    73    23    1
    93    38    99    1
    94    74   102    1
    95    74    24    1
    96    20    70    1
    97   102    10    1
    98    70    71    1
    99    70   100    1
   100    71    21    1
   101    71    46    1
   102    39   100    1
