@<TRIPOS>MOLECULE
48.11491
 102 102 0 0 0
SMALL
GASTEIGER

@<TRIPOS>ATOM
      1 H           4.0440   37.8690   23.4640 H       1  UNL1        0.0614
      2 H           1.1540   36.8160   23.5010 H       1  UNL1        0.0573
      3 H           5.1230   37.6320   25.6650 H       1  UNL1        0.0618
      4 H           2.2140   36.6340   25.6600 H       1  UNL1        0.0617
      5 H           3.1090   36.8570   27.9050 H       1  UNL1        0.0618
      6 H           6.1010   37.5670   27.9280 H       1  UNL1        0.0618
      7 H           3.9490   37.2780   30.1550 H       1  UNL1        0.0618
      8 H           7.0020   37.5930   30.2070 H       1  UNL1        0.0618
      9 H           4.7810   37.8590   32.3450 H       1  UNL1        0.0618
     10 H           6.4680   37.1820   36.1160 H       1  UNL1        0.2102
     11 H           1.9970   40.1730   25.7120 H       1  UNL1        0.0439
     12 H           1.3250   43.0750   25.1050 H       1  UNL1        0.0602
     13 H           3.7640   42.1570   25.5590 H       1  UNL1        0.0315
     14 H           3.1770   44.5480   25.7370 H       1  UNL1        0.0595
     15 H           5.1080   45.1340   26.6270 H       1  UNL1        0.0315
     16 H           6.1230   44.6250   28.7380 H       1  UNL1        0.0595
     17 H           5.4020   42.2990   29.1090 H       1  UNL1        0.0315
     18 H           5.9290   43.9220   31.1050 H       1  UNL1        0.0595
     19 H           5.8970   41.5010   31.4450 H       1  UNL1        0.0315
     20 H           5.7520   43.1330   33.5240 H       1  UNL1        0.0595
     21 H           4.6820   40.2710   33.7850 H       1  UNL1        0.0315
     22 H           7.1130   40.4490   32.9880 H       1  UNL1        0.0595
     23 H           6.7990   39.5830   35.9230 H       1  UNL1        0.0318
     24 H           5.3430   38.1840   34.5150 H       1  UNL1        0.0641
     25 H          -0.3250   40.2440   26.3420 H       1  UNL1        0.0274
     26 H           0.8620   37.7240   21.4130 H       1  UNL1        0.0343
     27 H           3.1350   39.6930   21.9510 H       1  UNL1        0.0734
     28 H           0.4640   40.0030   20.4680 H       1  UNL1        0.0265
     29 H           8.4220   36.9940   31.7270 H       1  UNL1        0.0275
     30 H          -0.9140   41.3850   23.5530 H       1  UNL1        0.0265
     31 H          -2.7400   40.4630   25.8350 H       1  UNL1        0.0265
     32 H          -3.4090   41.6280   23.0810 H       1  UNL1        0.0265
     33 H          -5.2030   40.6630   25.3750 H       1  UNL1        0.0263
     34 H          -7.0660   41.1830   23.8360 H       1  UNL1        0.0230
     35 H           1.0070   43.2610   27.4050 H       1  UNL1        0.2098
     36 H           2.7960   45.0730   28.1890 H       1  UNL1        0.2098
     37 H           4.7410   46.2930   28.7480 H       1  UNL1        0.2098
     38 H           3.8120   44.9310   30.7800 H       1  UNL1        0.2098
     39 H           3.5080   43.5020   33.0530 H       1  UNL1        0.2098
     40 H           8.5660   41.4000   34.4790 H       1  UNL1        0.2098
     41 H          -5.9320   41.8250   22.6350 H       1  UNL1        0.0230
     42 H           3.1950   41.8790   27.2090 H       1  UNL1        0.0315
     43 H           5.4480   43.4210   26.6890 H       1  UNL1        0.0315
     44 H           3.7180   42.8270   29.3100 H       1  UNL1        0.0315
     45 H           4.1270   41.4890   31.5190 H       1  UNL1        0.0315
     46 H           5.1010   41.2890   35.1480 H       1  UNL1        0.0315
     47 H           8.1860   39.2340   34.9610 H       1  UNL1        0.0318
     48 H          -0.1260   39.3650   24.8520 H       1  UNL1        0.0274
     49 H           2.5630   37.5090   21.0120 H       1  UNL1        0.0343
     50 H           2.0550   39.8160   19.6890 H       1  UNL1        0.0265
     51 H           8.6580   36.7890   33.4470 H       1  UNL1        0.0275
     52 H          -1.1480   42.2500   25.0720 H       1  UNL1        0.0265
     53 H          -2.5220   39.6240   24.2980 H       1  UNL1        0.0265
     54 H          -3.6240   42.4660   24.6200 H       1  UNL1        0.0265
     55 H          -4.9940   39.8360   23.8310 H       1  UNL1        0.0263
     56 H          -6.1440   42.6540   24.1900 H       1  UNL1        0.0230
     57 H           1.6810   41.2550   20.6640 H       1  UNL1        0.0265
     58 H           8.8170   38.4010   32.7220 H       1  UNL1        0.0275
     59 C           1.9090   40.9080   23.7400 C.2     1  UNL1        0.3130
     60 O           2.8370   41.6090   23.3530 O.2     1  UNL1       -0.2504
     61 C           1.3750   40.9020   25.1730 C.3     1  UNL1        0.0823
     62 C           1.5910   42.2880   25.8220 C.3     1  UNL1        0.0705
     63 C           3.0440   42.4920   26.3120 C.3     1  UNL1        0.0001
     64 C           3.3330   43.9640   26.6530 C.3     1  UNL1        0.0600
     65 C           4.7930   44.1950   27.1040 C.3     1  UNL1       -0.0006
     66 C           5.0640   44.3690   28.6040 C.3     1  UNL1        0.0599
     67 C           4.7640   43.1230   29.4500 C.3     1  UNL1       -0.0006
     68 C           4.9840   43.3860   30.9510 C.3     1  UNL1        0.0599
     69 C           5.0220   42.0780   31.7600 C.3     1  UNL1       -0.0006
     70 C           5.0430   42.3350   33.2770 C.3     1  UNL1        0.0599
     71 C           5.3540   41.0770   34.1000 C.3     1  UNL1       -0.0006
     72 C           6.8190   40.6300   34.0250 C.3     1  UNL1        0.0602
     73 C           7.1010   39.3890   34.8850 C.3     1  UNL1        0.0032
     74 C           6.4300   38.0970   34.3970 C.3     1  UNL1        0.0786
     75 C           6.7840   37.7390   32.9640 C.2     1  UNL1       -0.0445
     76 C           5.8130   37.6940   32.0300 C.2     1  UNL1       -0.0604
     77 C           5.9940   37.5230   30.6060 C.2     1  UNL1       -0.0617
     78 C           4.9630   37.3540   29.7650 C.2     1  UNL1       -0.0618
     79 C          -0.0730   40.3740   25.2810 C.3     1  UNL1       -0.0377
     80 C           5.1180   37.3290   28.3280 C.2     1  UNL1       -0.0618
     81 C           4.0910   37.0960   27.4990 C.2     1  UNL1       -0.0618
     82 C           4.1910   37.2400   26.0640 C.2     1  UNL1       -0.0618
     83 C           3.1500   37.0120   25.2510 C.2     1  UNL1       -0.0621
     84 C           3.1550   37.3770   23.8540 C.2     1  UNL1       -0.0656
     85 C           2.0540   37.2730   23.0930 C.2     1  UNL1       -0.0805
     86 C           1.8820   37.9450   21.7530 C.3     1  UNL1        0.0026
     87 C           2.0660   39.4760   21.8350 C.3     1  UNL1        0.1037
     88 C           1.5400   40.1710   20.5870 C.3     1  UNL1       -0.0274
     89 C           8.2440   37.4690   32.6950 C.3     1  UNL1       -0.0411
     90 C          -1.1390   41.2530   24.6180 C.3     1  UNL1       -0.0522
     91 O           1.3240   39.9420   22.9840 O.3     1  UNL1       -0.4611
     92 C          -2.5230   40.6140   24.7700 C.3     1  UNL1       -0.0530
     93 C          -3.6200   41.4770   24.1460 C.3     1  UNL1       -0.0533
     94 C          -4.9920   40.8220   24.3110 C.3     1  UNL1       -0.0559
     95 C          -6.0950   41.6730   23.7060 C.3     1  UNL1       -0.0653
     96 O           0.7240   42.4350   26.9530 O.3     1  UNL1       -0.3909
     97 O           2.3640   44.4260   27.5930 O.3     1  UNL1       -0.3916
     98 O           4.3040   45.4860   29.0860 O.3     1  UNL1       -0.3916
     99 O           3.9330   44.2200   31.4470 O.3     1  UNL1       -0.3916
    100 O           3.7420   42.7820   33.6800 O.3     1  UNL1       -0.3916
    101 O           7.6400   41.7010   34.5020 O.3     1  UNL1       -0.3916
    102 O           6.8420   37.0190   35.2340 O.3     1  UNL1       -0.3874
@<TRIPOS>BOND
     1    50    88    1
     2    28    88    1
     3    88    57    1
     4    88    87    1
     5    49    86    1
     6    26    86    1
     7    86    87    1
     8    86    85    1
     9    87    27    1
    10    87    91    1
    11    41    95    1
    12    91    59    1
    13    32    93    1
    14    85     2    1
    15    85    84    2
    16    60    59    2
    17     1    84    1
    18    30    90    1
    19    95    34    1
    20    95    56    1
    21    95    94    1
    22    59    61    1
    23    55    94    1
    24    84    83    1
    25    93    94    1
    26    93    54    1
    27    93    92    1
    28    53    92    1
    29    94    33    1
    30    90    92    1
    31    90    52    1
    32    90    79    1
    33    92    31    1
    34    48    79    1
    35    12    62    1
    36    61    79    1
    37    61    11    1
    38    61    62    1
    39    83     4    1
    40    83    82    2
    41    79    25    1
    42    13    63    1
    43     3    82    1
    44    14    64    1
    45    62    63    1
    46    62    96    1
    47    82    81    1
    48    63    64    1
    49    63    42    1
    50    15    65    1
    51    64    65    1
    52    64    97    1
    53    43    65    1
    54    96    35    1
    55    65    66    1
    56    81     5    1
    57    81    80    2
    58    97    36    1
    59     6    80    1
    60    80    78    1
    61    66    16    1
    62    66    98    1
    63    66    67    1
    64    37    98    1
    65    17    67    1
    66    44    67    1
    67    67    68    1
    68    78     7    1
    69    78    77    2
    70     8    77    1
    71    77    76    1
    72    38    99    1
    73    68    18    1
    74    68    99    1
    75    68    69    1
    76    19    69    1
    77    45    69    1
    78    29    89    1
    79    69    70    1
    80    76     9    1
    81    76    75    2
    82    89    58    1
    83    89    75    1
    84    89    51    1
    85    75    74    1
    86    22    72    1
    87    39   100    1
    88    70    20    1
    89    70   100    1
    90    70    71    1
    91    21    71    1
    92    72    71    1
    93    72   101    1
    94    72    73    1
    95    71    46    1
    96    74    24    1
    97    74    73    1
    98    74   102    1
    99    40   101    1
   100    73    47    1
   101    73    23    1
   102   102    10    1
