@<TRIPOS>MOLECULE
32.81807
 102 102 0 0 0
SMALL
GASTEIGER

@<TRIPOS>ATOM
      1 H          -1.2800   44.2670   22.1490 H       1  UNL1        0.0614
      2 H           0.7810   46.5370   22.3300 H       1  UNL1        0.0573
      3 H          -2.8240   44.2590   23.9710 H       1  UNL1        0.0618
      4 H          -1.0360   46.7650   23.9790 H       1  UNL1        0.0617
      5 H          -2.7170   46.7750   25.8030 H       1  UNL1        0.0618
      6 H          -4.2080   44.0860   25.9540 H       1  UNL1        0.0618
      7 H          -4.1860   46.6160   27.7680 H       1  UNL1        0.0618
      8 H          -5.3870   43.8040   28.0590 H       1  UNL1        0.0618
      9 H          -5.4740   46.3850   29.7690 H       1  UNL1        0.0618
     10 H          -7.9340   45.3860   33.1690 H       1  UNL1        0.2102
     11 H           2.3240   41.4400   23.5330 H       1  UNL1        0.0439
     12 H          -0.4520   41.2280   24.8290 H       1  UNL1        0.0602
     13 H           0.5450   43.5610   24.6310 H       1  UNL1        0.0315
     14 H          -0.8890   42.9490   26.6370 H       1  UNL1        0.0595
     15 H           0.0020   45.2670   26.4000 H       1  UNL1        0.0315
     16 H          -1.2150   44.6130   28.5780 H       1  UNL1        0.0595
     17 H          -0.6360   46.9930   28.1280 H       1  UNL1        0.0315
     18 H           0.2460   46.3040   30.9990 H       1  UNL1        0.0595
     19 H          -2.0650   45.4920   30.5800 H       1  UNL1        0.0315
     20 H          -1.5290   46.7670   32.7770 H       1  UNL1        0.0595
     21 H          -4.3710   47.1600   31.7100 H       1  UNL1        0.0315
     22 H          -3.6300   44.6740   31.8240 H       1  UNL1        0.0595
     23 H          -5.6610   45.5060   33.9710 H       1  UNL1        0.0318
     24 H          -6.4810   46.3530   31.8170 H       1  UNL1        0.0641
     25 H           0.1970   39.2760   23.0890 H       1  UNL1        0.0274
     26 H           2.1730   45.0850   21.0860 H       1  UNL1        0.0343
     27 H          -0.2040   43.2470   20.4600 H       1  UNL1        0.0734
     28 H           2.6990   43.1010   19.5110 H       1  UNL1        0.0265
     29 H          -6.0250   42.6180   29.6740 H       1  UNL1        0.0275
     30 H           2.9740   39.6750   21.8500 H       1  UNL1        0.0265
     31 H           0.9050   37.4360   21.5210 H       1  UNL1        0.0265
     32 H           3.6380   37.8570   20.1980 H       1  UNL1        0.0265
     33 H           1.5630   35.6170   19.9010 H       1  UNL1        0.0263
     34 H           3.2270   34.5920   18.3840 H       1  UNL1        0.0230
     35 H           2.1200   40.5460   25.8370 H       1  UNL1        0.2098
     36 H           0.6650   41.3620   27.3810 H       1  UNL1        0.2098
     37 H           0.6800   43.2920   29.1910 H       1  UNL1        0.2098
     38 H           0.8380   48.3350   30.2810 H       1  UNL1        0.2098
     39 H          -1.3700   48.7730   31.5110 H       1  UNL1        0.2098
     40 H          -3.1970   43.8820   33.8750 H       1  UNL1        0.2098
     41 H           4.2870   36.0030   18.5480 H       1  UNL1        0.0230
     42 H           1.9640   42.9720   25.5120 H       1  UNL1        0.0315
     43 H           1.5070   44.7700   27.1910 H       1  UNL1        0.0315
     44 H           1.0050   46.7240   28.6650 H       1  UNL1        0.0315
     45 H          -2.5020   47.0640   29.8850 H       1  UNL1        0.0315
     46 H          -3.8940   47.3060   33.3830 H       1  UNL1        0.0315
     47 H          -5.4720   43.9040   33.3600 H       1  UNL1        0.0318
     48 H           1.7260   39.0410   23.9330 H       1  UNL1        0.0274
     49 H           0.9120   45.5000   19.9230 H       1  UNL1        0.0343
     50 H           1.2900   43.4750   18.4890 H       1  UNL1        0.0265
     51 H          -7.4140   42.8770   30.7200 H       1  UNL1        0.0275
     52 H           1.4400   39.8300   20.9910 H       1  UNL1        0.0265
     53 H           2.4630   37.2780   22.3350 H       1  UNL1        0.0265
     54 H           2.0800   38.0210   19.3850 H       1  UNL1        0.0265
     55 H           3.1290   35.4560   20.7000 H       1  UNL1        0.0263
     56 H           2.7120   36.1630   17.7470 H       1  UNL1        0.0230
     57 H           1.4630   41.8790   19.2510 H       1  UNL1        0.0265
     58 H          -5.8030   42.6000   31.4130 H       1  UNL1        0.0275
     59 C           0.5290   41.9040   22.4370 C.2     1  UNL1        0.3130
     60 O          -0.6700   41.7940   22.2180 O.2     1  UNL1       -0.2504
     61 C           1.2730   41.1220   23.5030 C.3     1  UNL1        0.0823
     62 C           0.6300   41.4030   24.8780 C.3     1  UNL1        0.0705
     63 C           0.8830   42.8380   25.3790 C.3     1  UNL1        0.0001
     64 C           0.1870   43.1350   26.7220 C.3     1  UNL1        0.0600
     65 C           0.4240   44.5930   27.1530 C.3     1  UNL1       -0.0006
     66 C          -0.1640   44.9180   28.5390 C.3     1  UNL1        0.0599
     67 C          -0.0340   46.4140   28.8410 C.3     1  UNL1       -0.0006
     68 C          -0.3960   46.8220   30.2770 C.3     1  UNL1        0.0599
     69 C          -1.8710   46.5660   30.6330 C.3     1  UNL1       -0.0006
     70 C          -2.2480   47.1120   32.0250 C.3     1  UNL1        0.0599
     71 C          -3.6780   46.7570   32.4560 C.3     1  UNL1       -0.0006
     72 C          -3.9260   45.2650   32.6950 C.3     1  UNL1        0.0602
     73 C          -5.3870   44.9570   33.0590 C.3     1  UNL1        0.0032
     74 C          -6.4140   45.2680   31.9580 C.3     1  UNL1        0.0786
     75 C          -6.1080   44.5830   30.6350 C.2     1  UNL1       -0.0445
     76 C          -5.6080   45.3140   29.6170 C.2     1  UNL1       -0.0604
     77 C          -5.1620   44.8300   28.3310 C.2     1  UNL1       -0.0617
     78 C          -4.4380   45.5920   27.4970 C.2     1  UNL1       -0.0618
     79 C           1.2380   39.6220   23.1410 C.3     1  UNL1       -0.0377
     80 C          -3.9070   45.0890   26.2510 C.2     1  UNL1       -0.0618
     81 C          -3.0380   45.7810   25.4990 C.2     1  UNL1       -0.0618
     82 C          -2.4480   45.2260   24.3030 C.2     1  UNL1       -0.0618
     83 C          -1.4400   45.8130   23.6420 C.2     1  UNL1       -0.0621
     84 C          -0.8040   45.1730   22.5140 C.2     1  UNL1       -0.0656
     85 C           0.3320   45.6180   21.9570 C.2     1  UNL1       -0.0805
     86 C           1.1090   44.9460   20.8490 C.3     1  UNL1        0.0026
     87 C           0.8610   43.4420   20.6240 C.3     1  UNL1        0.1037
     88 C           1.6200   42.9530   19.3930 C.3     1  UNL1       -0.0274
     89 C          -6.3480   43.0940   30.6030 C.3     1  UNL1       -0.0411
     90 C           1.9410   39.3090   21.8150 C.3     1  UNL1       -0.0522
     91 O           1.3890   42.7050   21.7520 O.3     1  UNL1       -0.4611
     92 C           1.9380   37.8050   21.5300 C.3     1  UNL1       -0.0530
     93 C           2.6050   37.4910   20.1900 C.3     1  UNL1       -0.0533
     94 C           2.5950   35.9890   19.9050 C.3     1  UNL1       -0.0559
     95 C           3.2440   35.6710   18.5670 C.3     1  UNL1       -0.0653
     96 O           1.1460   40.4960   25.8640 O.3     1  UNL1       -0.3909
     97 O           0.6960   42.2750   27.7460 O.3     1  UNL1       -0.3916
     98 O           0.5430   44.1990   29.5480 O.3     1  UNL1       -0.3916
     99 O          -0.1220   48.2260   30.4100 O.3     1  UNL1       -0.3916
    100 O          -2.1910   48.5450   31.9990 O.3     1  UNL1       -0.3916
    101 O          -3.0940   44.8450   33.7800 O.3     1  UNL1       -0.3916
    102 O          -7.7050   44.8470   32.3930 O.3     1  UNL1       -0.3874
@<TRIPOS>BOND
     1    56    95    1
     2    34    95    1
     3    50    88    1
     4    41    95    1
     5    95    94    1
     6    57    88    1
     7    54    93    1
     8    88    28    1
     9    88    87    1
    10    33    94    1
    11    94    93    1
    12    94    55    1
    13    49    86    1
    14    93    32    1
    15    93    92    1
    16    27    87    1
    17    87    86    1
    18    87    91    1
    19    86    26    1
    20    86    85    1
    21    52    90    1
    22    31    92    1
    23    92    90    1
    24    92    53    1
    25    91    59    1
    26    90    30    1
    27    90    79    1
    28    85     2    1
    29    85    84    2
    30     1    84    1
    31    60    59    2
    32    59    61    1
    33    84    83    1
    34    25    79    1
    35    79    61    1
    36    79    48    1
    37    61    11    1
    38    61    62    1
    39    83     4    1
    40    83    82    2
    41     3    82    1
    42    82    81    1
    43    13    63    1
    44    12    62    1
    45    62    63    1
    46    62    96    1
    47    63    42    1
    48    63    64    1
    49    81     5    1
    50    81    80    2
    51    35    96    1
    52     6    80    1
    53    80    78    1
    54    15    65    1
    55    14    64    1
    56    64    65    1
    57    64    97    1
    58    65    43    1
    59    65    66    1
    60    36    97    1
    61    78     7    1
    62    78    77    2
    63     8    77    1
    64    17    67    1
    65    77    76    1
    66    66    16    1
    67    66    67    1
    68    66    98    1
    69    44    67    1
    70    67    68    1
    71    37    98    1
    72    76     9    1
    73    76    75    2
    74    29    89    1
    75    45    69    1
    76    68    99    1
    77    68    69    1
    78    68    18    1
    79    38    99    1
    80    19    69    1
    81    89    75    1
    82    89    51    1
    83    89    58    1
    84    69    70    1
    85    75    74    1
    86    39   100    1
    87    21    71    1
    88    24    74    1
    89    22    72    1
    90    74   102    1
    91    74    73    1
    92   100    70    1
    93    70    71    1
    94    70    20    1
    95   102    10    1
    96    71    72    1
    97    71    46    1
    98    72    73    1
    99    72   101    1
   100    73    47    1
   101    73    23    1
   102   101    40    1
