@<TRIPOS>MOLECULE
46.50999
 102 102 0 0 0
SMALL
GASTEIGER

@<TRIPOS>ATOM
      1 H           3.0270   44.2760   21.2640 H       1  UNL1        0.0614
      2 H           3.4300   43.5510   18.3050 H       1  UNL1        0.0573
      3 H           1.1170   43.0840   22.2360 H       1  UNL1        0.0618
      4 H           1.6980   42.2280   19.3380 H       1  UNL1        0.0617
      5 H          -0.1540   40.9830   20.3200 H       1  UNL1        0.0618
      6 H          -0.9350   42.0270   23.1060 H       1  UNL1        0.0618
      7 H          -2.1230   39.8760   21.1940 H       1  UNL1        0.0618
      8 H          -3.0810   41.0730   23.8510 H       1  UNL1        0.0618
      9 H          -4.0820   38.8030   21.9930 H       1  UNL1        0.0618
     10 H          -8.0380   37.7600   23.8870 H       1  UNL1        0.2102
     11 H           1.6290   49.0850   20.1160 H       1  UNL1        0.0439
     12 H           1.3510   46.4460   21.6540 H       1  UNL1        0.0602
     13 H           0.8340   46.3720   19.1780 H       1  UNL1        0.0315
     14 H          -0.5410   44.9740   20.7830 H       1  UNL1        0.0595
     15 H          -0.9840   44.8720   18.3120 H       1  UNL1        0.0315
     16 H          -2.4240   43.5330   19.9420 H       1  UNL1        0.0595
     17 H          -2.7300   43.6310   17.2880 H       1  UNL1        0.0315
     18 H          -4.8380   42.2420   17.3750 H       1  UNL1        0.0595
     19 H          -5.8560   43.2250   19.4650 H       1  UNL1        0.0315
     20 H          -6.5080   40.8790   18.7620 H       1  UNL1        0.0595
     21 H          -7.4950   41.9940   20.7440 H       1  UNL1        0.0315
     22 H          -8.3980   40.2080   21.9990 H       1  UNL1        0.0595
     23 H          -6.2290   38.3380   20.8880 H       1  UNL1        0.0318
     24 H          -6.0280   37.5340   23.1920 H       1  UNL1        0.0641
     25 H           3.0540   48.3380   22.7230 H       1  UNL1        0.0274
     26 H           4.4610   45.7490   18.2720 H       1  UNL1        0.0343
     27 H           5.2520   45.3530   21.2030 H       1  UNL1        0.0734
     28 H           5.9580   47.6420   19.3060 H       1  UNL1        0.0265
     29 H          -4.9890   41.2570   24.7440 H       1  UNL1        0.0275
     30 H           3.1730   50.8390   20.9510 H       1  UNL1        0.0265
     31 H           4.5300   50.2080   23.6270 H       1  UNL1        0.0265
     32 H           4.6120   52.6990   21.8410 H       1  UNL1        0.0265
     33 H           5.9730   52.0960   24.5220 H       1  UNL1        0.0263
     34 H           6.7880   54.4250   24.3610 H       1  UNL1        0.0230
     35 H          -0.3290   48.7410   21.6430 H       1  UNL1        0.2098
     36 H          -1.4140   46.8320   21.8660 H       1  UNL1        0.2098
     37 H          -3.3890   45.5930   20.7180 H       1  UNL1        0.2098
     38 H          -2.7830   41.3790   17.5020 H       1  UNL1        0.2098
     39 H          -4.1800   40.2420   19.2920 H       1  UNL1        0.2098
     40 H          -9.1690   39.0100   20.2810 H       1  UNL1        0.2098
     41 H           6.0400   54.6070   22.7650 H       1  UNL1        0.0230
     42 H          -0.3140   47.7040   19.4180 H       1  UNL1        0.0315
     43 H          -2.1460   46.2050   18.4830 H       1  UNL1        0.0315
     44 H          -4.2140   44.5160   17.6770 H       1  UNL1        0.0315
     45 H          -4.5240   42.5110   20.4030 H       1  UNL1        0.0315
     46 H          -6.2210   41.3920   21.7790 H       1  UNL1        0.0315
     47 H          -7.7520   37.8090   21.5090 H       1  UNL1        0.0318
     48 H           1.7730   49.5330   22.5680 H       1  UNL1        0.0274
     49 H           5.6280   44.5980   18.8830 H       1  UNL1        0.0343
     50 H           7.0630   46.4180   19.9520 H       1  UNL1        0.0265
     51 H          -5.9010   39.9520   25.4950 H       1  UNL1        0.0275
     52 H           4.4940   49.6910   21.1830 H       1  UNL1        0.0265
     53 H           3.1980   51.3460   23.4100 H       1  UNL1        0.0265
     54 H           5.9470   51.5670   22.0720 H       1  UNL1        0.0265
     55 H           4.6300   53.2190   24.2970 H       1  UNL1        0.0263
     56 H           7.3910   53.4780   22.9900 H       1  UNL1        0.0230
     57 H           6.2880   47.5980   21.0330 H       1  UNL1        0.0265
     58 H          -6.6730   41.0330   24.3100 H       1  UNL1        0.0275
     59 C           3.1640   47.6150   20.0410 C.2     1  UNL1        0.3130
     60 O           3.4350   47.8450   18.8700 O.2     1  UNL1       -0.2504
     61 C           2.0460   48.3210   20.7860 C.3     1  UNL1        0.0823
     62 C           0.9300   47.3160   21.1370 C.3     1  UNL1        0.0705
     63 C           0.1480   46.8320   19.8980 C.3     1  UNL1        0.0001
     64 C          -0.9670   45.8300   20.2520 C.3     1  UNL1        0.0600
     65 C          -1.7040   45.3390   18.9930 C.3     1  UNL1       -0.0006
     66 C          -2.8310   44.3430   19.3280 C.3     1  UNL1        0.0599
     67 C          -3.4940   43.7810   18.0600 C.3     1  UNL1       -0.0006
     68 C          -4.2330   42.4450   18.2670 C.3     1  UNL1        0.0599
     69 C          -5.1420   42.3930   19.5050 C.3     1  UNL1       -0.0006
     70 C          -5.9080   41.0620   19.6600 C.3     1  UNL1        0.0599
     71 C          -6.8190   41.1420   20.8990 C.3     1  UNL1       -0.0006
     72 C          -7.7000   39.9220   21.2020 C.3     1  UNL1        0.0602
     73 C          -7.0050   38.6100   21.6080 C.3     1  UNL1        0.0032
     74 C          -6.4600   38.5340   23.0480 C.3     1  UNL1        0.0786
     75 C          -5.3910   39.5370   23.4510 C.2     1  UNL1       -0.0445
     76 C          -4.2110   39.5310   22.7960 C.2     1  UNL1       -0.0604
     77 C          -3.0900   40.4260   22.9810 C.2     1  UNL1       -0.0617
     78 C          -2.0930   40.5010   22.0850 C.2     1  UNL1       -0.0618
     79 C           2.5980   49.0540   22.0280 C.3     1  UNL1       -0.0377
     80 C          -0.9870   41.4240   22.2020 C.2     1  UNL1       -0.0618
     81 C          -0.0750   41.5760   21.2300 C.2     1  UNL1       -0.0618
     82 C           1.0060   42.5310   21.3050 C.2     1  UNL1       -0.0618
     83 C           1.8250   42.7740   20.2710 C.2     1  UNL1       -0.0621
     84 C           2.8720   43.7700   20.3150 C.2     1  UNL1       -0.0656
     85 C           3.6120   44.0810   19.2400 C.2     1  UNL1       -0.0805
     86 C           4.6990   45.1240   19.1390 C.3     1  UNL1        0.0026
     87 C           4.9680   46.0100   20.3710 C.3     1  UNL1        0.1037
     88 C           6.1380   46.9680   20.1500 C.3     1  UNL1       -0.0274
     89 C          -5.7500   40.4960   24.5570 C.3     1  UNL1       -0.0411
     90 C           3.6200   50.1400   21.6680 C.3     1  UNL1       -0.0522
     91 O           3.8080   46.7340   20.8470 O.3     1  UNL1       -0.4611
     92 C           4.0710   50.9040   22.9140 C.3     1  UNL1       -0.0530
     93 C           5.0690   52.0080   22.5600 C.3     1  UNL1       -0.0533
     94 C           5.5060   52.7800   23.8040 C.3     1  UNL1       -0.0559
     95 C           6.4890   53.8860   23.4570 C.3     1  UNL1       -0.0653
     96 O          -0.0020   47.9150   22.0500 O.3     1  UNL1       -0.3909
     97 O          -1.9250   46.4380   21.1240 O.3     1  UNL1       -0.3916
     98 O          -3.8510   45.0100   20.0750 O.3     1  UNL1       -0.3916
     99 O          -3.2630   41.3890   18.3500 O.3     1  UNL1       -0.3916
    100 O          -4.9840   39.9850   19.7910 O.3     1  UNL1       -0.3916
    101 O          -8.5090   39.6800   20.0390 O.3     1  UNL1       -0.3916
    102 O          -7.5650   38.6060   23.9530 O.3     1  UNL1       -0.3874
@<TRIPOS>BOND
     1    17    67    1
     2    18    68    1
     3    38    99    1
     4    44    67    1
     5    67    68    1
     6    67    66    1
     7    68    99    1
     8    68    69    1
     9    26    86    1
    10     2    85    1
    11    15    65    1
    12    43    65    1
    13    20    70    1
    14    60    59    2
    15    49    86    1
    16    65    66    1
    17    65    64    1
    18    86    85    1
    19    86    87    1
    20    13    63    1
    21    85    84    2
    22    39   100    1
    23    28    88    1
    24    66    16    1
    25    66    98    1
    26     4    83    1
    27    42    63    1
    28    19    69    1
    29    69    70    1
    30    69    45    1
    31    70   100    1
    32    70    71    1
    33    63    64    1
    34    63    62    1
    35    50    88    1
    36   101    40    1
    37   101    72    1
    38    59    61    1
    39    59    91    1
    40    98    37    1
    41    11    61    1
    42    88    87    1
    43    88    57    1
    44    64    14    1
    45    64    97    1
    46    83    84    1
    47    83    82    2
    48    84     1    1
    49     5    81    1
    50    87    91    1
    51    87    27    1
    52    21    71    1
    53    61    62    1
    54    61    79    1
    55    23    73    1
    56    71    72    1
    57    71    46    1
    58    30    90    1
    59    97    36    1
    60    62    12    1
    61    62    96    1
    62    52    90    1
    63     7    78    1
    64    72    73    1
    65    72    22    1
    66    81    82    1
    67    81    80    2
    68    82     3    1
    69    47    73    1
    70    73    74    1
    71    35    96    1
    72    90    79    1
    73    90    92    1
    74    32    93    1
    75     9    76    1
    76    79    48    1
    77    79    25    1
    78    54    93    1
    79    78    80    1
    80    78    77    2
    81    80     6    1
    82    93    92    1
    83    93    94    1
    84    41    95    1
    85    76    77    1
    86    76    75    2
    87    92    53    1
    88    92    31    1
    89    77     8    1
    90    56    95    1
    91    74    24    1
    92    74    75    1
    93    74   102    1
    94    75    89    1
    95    95    94    1
    96    95    34    1
    97    94    55    1
    98    94    33    1
    99    10   102    1
   100    58    89    1
   101    89    29    1
   102    89    51    1
