@<TRIPOS>MOLECULE
35.55214
 102 102 0 0 0
SMALL
GASTEIGER

@<TRIPOS>ATOM
      1 H           0.6700   45.5750   18.3930 H       1  UNL1        0.0614
      2 H           0.9910   42.7600   19.5890 H       1  UNL1        0.0573
      3 H           2.5860   46.1770   16.9630 H       1  UNL1        0.0618
      4 H           2.7560   43.2900   18.0090 H       1  UNL1        0.0617
      5 H           4.6260   43.8570   16.5550 H       1  UNL1        0.0618
      6 H           4.5780   46.8050   15.6760 H       1  UNL1        0.0618
      7 H           6.5920   44.4680   15.2550 H       1  UNL1        0.0618
      8 H           6.6690   47.4680   14.6090 H       1  UNL1        0.0618
      9 H           8.6020   45.0910   14.1330 H       1  UNL1        0.0618
     10 H          11.9750   46.7940   12.0370 H       1  UNL1        0.2102
     11 H           1.4850   40.8920   23.4310 H       1  UNL1        0.0439
     12 H           2.7850   43.6590   23.6440 H       1  UNL1        0.0602
     13 H           2.8000   42.8970   21.2620 H       1  UNL1        0.0315
     14 H           4.8960   43.9770   22.3060 H       1  UNL1        0.0595
     15 H           4.8240   43.6890   19.8890 H       1  UNL1        0.0315
     16 H           7.1490   44.1060   21.0060 H       1  UNL1        0.0595
     17 H           6.9170   44.4340   18.5940 H       1  UNL1        0.0315
     18 H           9.3180   44.1800   19.5890 H       1  UNL1        0.0595
     19 H           9.0150   45.0890   17.3340 H       1  UNL1        0.0315
     20 H          11.4070   44.2860   18.0630 H       1  UNL1        0.0595
     21 H          10.7090   44.2120   15.0800 H       1  UNL1        0.0315
     22 H          10.3770   46.4940   16.3030 H       1  UNL1        0.0595
     23 H          12.7020   46.3530   14.2950 H       1  UNL1        0.0318
     24 H          10.6610   45.4730   13.2160 H       1  UNL1        0.0641
     25 H           0.6990   43.3020   25.1590 H       1  UNL1        0.0274
     26 H          -1.3100   43.0920   20.2010 H       1  UNL1        0.0343
     27 H          -0.0570   45.5610   21.5060 H       1  UNL1        0.0734
     28 H          -2.2470   43.6960   22.5390 H       1  UNL1        0.0265
     29 H           8.1710   48.8760   14.1960 H       1  UNL1        0.0275
     30 H          -0.3070   40.4080   25.1140 H       1  UNL1        0.0265
     31 H          -1.0200   42.7670   26.9380 H       1  UNL1        0.0265
     32 H          -2.0820   39.8920   26.8510 H       1  UNL1        0.0265
     33 H          -2.7850   42.2560   28.6750 H       1  UNL1        0.0263
     34 H          -4.2670   40.6360   29.8130 H       1  UNL1        0.0230
     35 H           3.5830   41.0200   24.3270 H       1  UNL1        0.2098
     36 H           5.3380   42.1730   23.6330 H       1  UNL1        0.2098
     37 H           7.1690   41.8920   21.7640 H       1  UNL1        0.2098
     38 H           8.9610   41.8740   19.8190 H       1  UNL1        0.2098
     39 H          10.7090   42.0670   17.8260 H       1  UNL1        0.2098
     40 H          12.3070   47.4780   16.9790 H       1  UNL1        0.2098
     41 H          -3.8610   39.3870   28.6230 H       1  UNL1        0.0230
     42 H           3.4460   41.3270   21.7790 H       1  UNL1        0.0315
     43 H           5.1970   41.9610   20.0310 H       1  UNL1        0.0315
     44 H           6.9760   42.6850   18.3060 H       1  UNL1        0.0315
     45 H           8.8090   43.4630   16.6620 H       1  UNL1        0.0315
     46 H          12.3450   44.2180   15.6990 H       1  UNL1        0.0315
     47 H          11.9100   47.8130   14.7580 H       1  UNL1        0.0318
     48 H           1.6070   41.9120   25.7460 H       1  UNL1        0.0274
     49 H          -1.3350   44.7400   19.6340 H       1  UNL1        0.0343
     50 H          -2.4810   45.3320   21.8950 H       1  UNL1        0.0265
     51 H           9.2880   48.9460   12.8420 H       1  UNL1        0.0275
     52 H          -1.2400   41.8270   24.6280 H       1  UNL1        0.0265
     53 H          -0.1160   41.3330   27.4310 H       1  UNL1        0.0265
     54 H          -2.9860   41.3240   26.3540 H       1  UNL1        0.0265
     55 H          -1.8850   40.8210   29.1720 H       1  UNL1        0.0263
     56 H          -4.7650   40.8300   28.1240 H       1  UNL1        0.0230
     57 H          -1.5700   45.0710   23.4000 H       1  UNL1        0.0265
     58 H           9.8910   49.0040   14.5120 H       1  UNL1        0.0275
     59 C           0.4000   42.4950   22.5660 C.2     1  UNL1        0.3130
     60 O          -0.4450   41.7800   22.0450 O.2     1  UNL1       -0.2504
     61 C           1.4010   41.9770   23.5820 C.3     1  UNL1        0.0823
     62 C           2.8110   42.5870   23.4130 C.3     1  UNL1        0.0705
     63 C           3.4230   42.4000   22.0110 C.3     1  UNL1        0.0001
     64 C           4.8600   42.9510   21.9200 C.3     1  UNL1        0.0600
     65 C           5.3850   42.9490   20.4720 C.3     1  UNL1       -0.0006
     66 C           6.8950   43.2350   20.3910 C.3     1  UNL1        0.0599
     67 C           7.3560   43.4930   18.9450 C.3     1  UNL1       -0.0006
     68 C           8.8900   43.5330   18.8150 C.3     1  UNL1        0.0599
     69 C           9.3300   44.0460   17.4330 C.3     1  UNL1       -0.0006
     70 C          10.8470   43.9020   17.2030 C.3     1  UNL1        0.0599
     71 C          11.3260   44.5750   15.9090 C.3     1  UNL1       -0.0006
     72 C          11.3410   46.1060   15.9640 C.3     1  UNL1        0.0602
     73 C          11.7250   46.7400   14.6170 C.3     1  UNL1        0.0032
     74 C          10.7020   46.5340   13.4880 C.3     1  UNL1        0.0786
     75 C           9.3130   47.0420   13.8420 C.2     1  UNL1       -0.0445
     76 C           8.3540   46.1530   14.1710 C.2     1  UNL1       -0.0604
     77 C           7.0220   46.4430   14.6490 C.2     1  UNL1       -0.0617
     78 C           6.2410   45.4960   15.1920 C.2     1  UNL1       -0.0618
     79 C           0.8590   42.2270   25.0080 C.3     1  UNL1       -0.0377
     80 C           4.9500   45.7870   15.7710 C.2     1  UNL1       -0.0618
     81 C           4.2430   44.8700   16.4480 C.2     1  UNL1       -0.0618
     82 C           2.9880   45.1750   17.0970 C.2     1  UNL1       -0.0618
     83 C           2.3440   44.2880   17.8690 C.2     1  UNL1       -0.0621
     84 C           1.1180   44.5990   18.5650 C.2     1  UNL1       -0.0656
     85 C           0.5470   43.7380   19.4190 C.2     1  UNL1       -0.0805
     86 C          -0.7190   44.0140   20.1810 C.3     1  UNL1        0.0026
     87 C          -0.4710   44.5500   21.6050 C.3     1  UNL1        0.1037
     88 C          -1.7700   44.6710   22.4000 C.3     1  UNL1       -0.0274
     89 C           9.1510   48.5420   13.8510 C.3     1  UNL1       -0.0411
     90 C          -0.4470   41.4790   25.3000 C.3     1  UNL1       -0.0522
     91 O           0.5150   43.8330   22.3880 O.3     1  UNL1       -0.4611
     92 C          -0.8950   41.6940   26.7480 C.3     1  UNL1       -0.0530
     93 C          -2.2080   40.9650   27.0390 C.3     1  UNL1       -0.0533
     94 C          -2.6570   41.1840   28.4830 C.3     1  UNL1       -0.0559
     95 C          -3.9640   40.4660   28.7750 C.3     1  UNL1       -0.0653
     96 O           3.7020   41.9880   24.3720 O.3     1  UNL1       -0.3909
     97 O           5.7300   42.1560   22.7310 O.3     1  UNL1       -0.3916
     98 O           7.6150   42.1130   20.9130 O.3     1  UNL1       -0.3916
     99 O           9.4150   42.2160   19.0130 O.3     1  UNL1       -0.3916
    100 O          11.1600   42.5090   17.0710 O.3     1  UNL1       -0.3916
    101 O          12.3060   46.5050   16.9420 O.3     1  UNL1       -0.3916
    102 O          11.1500   47.2230   12.3230 O.3     1  UNL1       -0.3874
@<TRIPOS>BOND
     1    10   102    1
     2   102    74    1
     3    51    89    1
     4    24    74    1
     5    74    75    1
     6    74    73    1
     7    75    89    1
     8    75    76    2
     9    89    29    1
    10    89    58    1
    11     9    76    1
    12    76    77    1
    13    23    73    1
    14     8    77    1
    15    73    47    1
    16    73    72    1
    17    77    78    2
    18    21    71    1
    19    78     7    1
    20    78    80    1
    21     6    80    1
    22    46    71    1
    23    80    81    2
    24    71    72    1
    25    71    70    1
    26    72    22    1
    27    72   101    1
    28    81     5    1
    29    81    82    1
    30    45    69    1
    31   101    40    1
    32     3    82    1
    33   100    70    1
    34   100    39    1
    35    82    83    2
    36    70    69    1
    37    70    20    1
    38    19    69    1
    39    69    68    1
    40    83     4    1
    41    83    84    1
    42    44    67    1
    43     1    84    1
    44    84    85    2
    45    17    67    1
    46    68    67    1
    47    68    99    1
    48    68    18    1
    49    67    66    1
    50    99    38    1
    51    85     2    1
    52    85    86    1
    53    49    86    1
    54    15    65    1
    55    43    65    1
    56    86    26    1
    57    86    87    1
    58    66    65    1
    59    66    98    1
    60    66    16    1
    61    65    64    1
    62    98    37    1
    63    13    63    1
    64    27    87    1
    65    87    91    1
    66    87    88    1
    67    42    63    1
    68    50    88    1
    69    64    63    1
    70    64    14    1
    71    64    97    1
    72    63    62    1
    73    60    59    2
    74    91    59    1
    75    88    28    1
    76    88    57    1
    77    59    61    1
    78    97    36    1
    79    62    61    1
    80    62    12    1
    81    62    96    1
    82    11    61    1
    83    61    79    1
    84    35    96    1
    85    52    90    1
    86    79    25    1
    87    79    90    1
    88    79    48    1
    89    30    90    1
    90    90    92    1
    91    54    93    1
    92    92    31    1
    93    92    93    1
    94    92    53    1
    95    32    93    1
    96    93    94    1
    97    56    95    1
    98    94    33    1
    99    94    95    1
   100    94    55    1
   101    41    95    1
   102    95    34    1
