@<TRIPOS>MOLECULE
39.24160
 102 102 0 0 0
SMALL
GASTEIGER

@<TRIPOS>ATOM
      1 H           6.0900   48.5890   22.2320 H       1  UNL1        0.0614
      2 H           7.6620   46.1610   21.1950 H       1  UNL1        0.0573
      3 H           5.7310   48.4740   24.6450 H       1  UNL1        0.0618
      4 H           7.4380   46.1410   23.5980 H       1  UNL1        0.0617
      5 H           7.1050   46.0360   26.0140 H       1  UNL1        0.0618
      6 H           5.2990   48.2960   27.0570 H       1  UNL1        0.0618
      7 H           6.6740   45.8530   28.4170 H       1  UNL1        0.0618
      8 H           4.7550   48.0310   29.4050 H       1  UNL1        0.0618
      9 H           6.1800   45.6390   30.7780 H       1  UNL1        0.0618
     10 H           4.2940   45.7310   34.9000 H       1  UNL1        0.2102
     11 H           1.9500   47.1530   20.0280 H       1  UNL1        0.0439
     12 H           3.5890   47.0320   22.0560 H       1  UNL1        0.0602
     13 H           1.1740   46.3390   22.1150 H       1  UNL1        0.0315
     14 H           2.6460   46.2690   24.2070 H       1  UNL1        0.0595
     15 H           0.3560   45.3220   24.2700 H       1  UNL1        0.0315
     16 H           1.7470   45.6120   26.4320 H       1  UNL1        0.0595
     17 H          -0.2930   44.1830   26.4370 H       1  UNL1        0.0315
     18 H          -0.4380   46.0550   28.8710 H       1  UNL1        0.0595
     19 H           1.9010   45.1640   28.5610 H       1  UNL1        0.0315
     20 H           0.8100   45.3860   30.8840 H       1  UNL1        0.0595
     21 H           3.2430   44.9080   30.4150 H       1  UNL1        0.0315
     22 H           2.1760   45.0140   32.8650 H       1  UNL1        0.0595
     23 H           4.8510   43.7300   32.1380 H       1  UNL1        0.0318
     24 H           5.8560   45.6360   33.2520 H       1  UNL1        0.0641
     25 H           2.5190   50.1600   20.2620 H       1  UNL1        0.0274
     26 H           6.5030   46.7590   19.1380 H       1  UNL1        0.0343
     27 H           6.5930   49.6910   20.0140 H       1  UNL1        0.0734
     28 H           5.5930   48.4790   17.3930 H       1  UNL1        0.0265
     29 H           3.3740   48.2040   30.9500 H       1  UNL1        0.0275
     30 H           0.8400   48.5310   18.2870 H       1  UNL1        0.0265
     31 H           1.4460   51.5310   18.4740 H       1  UNL1        0.0265
     32 H          -0.2040   49.9350   16.4420 H       1  UNL1        0.0265
     33 H           0.4170   52.9320   16.6460 H       1  UNL1        0.0263
     34 H          -1.0550   53.1370   14.6700 H       1  UNL1        0.0230
     35 H           2.5350   49.6500   22.4480 H       1  UNL1        0.2098
     36 H           2.8470   48.5510   24.3280 H       1  UNL1        0.2098
     37 H           1.3070   47.9280   26.3980 H       1  UNL1        0.2098
     38 H          -2.1380   44.5900   28.5720 H       1  UNL1        0.2098
     39 H          -0.5020   43.4370   30.3920 H       1  UNL1        0.2098
     40 H           1.3610   42.8450   32.4830 H       1  UNL1        0.2098
     41 H          -1.2420   51.3760   14.5920 H       1  UNL1        0.0230
     42 H           0.7390   48.0050   22.5520 H       1  UNL1        0.0315
     43 H          -0.3150   46.9300   24.6170 H       1  UNL1        0.0315
     44 H          -1.3140   45.5910   26.6260 H       1  UNL1        0.0315
     45 H           1.2360   43.5170   28.4980 H       1  UNL1        0.0315
     46 H           2.9000   43.1810   30.5220 H       1  UNL1        0.0315
     47 H           4.3390   43.7720   33.8100 H       1  UNL1        0.0318
     48 H           0.9610   49.4180   20.6220 H       1  UNL1        0.0274
     49 H           7.9310   47.7550   19.3000 H       1  UNL1        0.0343
     50 H           7.0470   49.4650   17.6190 H       1  UNL1        0.0265
     51 H           3.8320   48.4420   32.6330 H       1  UNL1        0.0275
     52 H           2.3980   49.2770   17.9200 H       1  UNL1        0.0265
     53 H          -0.1200   50.7820   18.7980 H       1  UNL1        0.0265
     54 H           1.3680   50.6700   16.1190 H       1  UNL1        0.0265
     55 H          -1.1560   52.1960   16.9560 H       1  UNL1        0.0263
     56 H           0.3410   52.1170   14.2820 H       1  UNL1        0.0230
     57 H           5.4310   50.1620   17.8740 H       1  UNL1        0.0265
     58 H           2.6100   47.2330   32.1850 H       1  UNL1        0.0275
     59 C           3.8970   47.8440   19.6710 C.2     1  UNL1        0.3130
     60 O           4.1180   46.9600   18.8540 O.2     1  UNL1       -0.2504
     61 C           2.5680   47.9840   20.3960 C.3     1  UNL1        0.0823
     62 C           2.7910   47.7700   21.9100 C.3     1  UNL1        0.0705
     63 C           1.5280   47.2450   22.6200 C.3     1  UNL1        0.0001
     64 C           1.7830   46.9380   24.1060 C.3     1  UNL1        0.0600
     65 C           0.5570   46.2810   24.7630 C.3     1  UNL1       -0.0006
     66 C           0.7650   46.0690   26.2710 C.3     1  UNL1        0.0599
     67 C          -0.3270   45.1850   26.8840 C.3     1  UNL1       -0.0006
     68 C          -0.2540   45.0750   28.4160 C.3     1  UNL1        0.0599
     69 C           1.0870   44.5230   28.9140 C.3     1  UNL1       -0.0006
     70 C           1.1560   44.4430   30.4460 C.3     1  UNL1        0.0599
     71 C           2.5970   44.1700   30.8900 C.3     1  UNL1       -0.0006
     72 C           2.7550   44.2000   32.4170 C.3     1  UNL1        0.0602
     73 C           4.2280   44.2900   32.8470 C.3     1  UNL1        0.0032
     74 C           4.7880   45.7190   33.0120 C.3     1  UNL1        0.0786
     75 C           4.6450   46.6350   31.8030 C.2     1  UNL1       -0.0445
     76 C           5.4440   46.4420   30.7310 C.2     1  UNL1       -0.0604
     77 C           5.3890   47.1520   29.4710 C.2     1  UNL1       -0.0617
     78 C           6.0470   46.7410   28.3760 C.2     1  UNL1       -0.0618
     79 C           1.8730   49.3060   20.0240 C.3     1  UNL1       -0.0377
     80 C           5.9190   47.4020   27.0950 C.2     1  UNL1       -0.0618
     81 C           6.4960   46.9370   25.9770 C.2     1  UNL1       -0.0618
     82 C           6.3270   47.5650   24.6850 C.2     1  UNL1       -0.0618
     83 C           6.8510   47.0560   23.5590 C.2     1  UNL1       -0.0621
     84 C           6.6530   47.6580   22.2590 C.2     1  UNL1       -0.0656
     85 C           7.1070   47.0960   21.1290 C.2     1  UNL1       -0.0805
     86 C           6.9270   47.5900   19.7130 C.3     1  UNL1        0.0026
     87 C           6.0970   48.8700   19.4820 C.3     1  UNL1        0.1037
     88 C           6.0430   49.2640   18.0070 C.3     1  UNL1       -0.0274
     89 C           3.5620   47.6840   31.8910 C.3     1  UNL1       -0.0411
     90 C           1.4980   49.3720   18.5380 C.3     1  UNL1       -0.0522
     91 O           4.7600   48.8230   20.0340 O.3     1  UNL1       -0.4611
     92 C           0.7960   50.6900   18.2020 C.3     1  UNL1       -0.0530
     93 C           0.4520   50.7710   16.7140 C.3     1  UNL1       -0.0533
     94 C          -0.2340   52.0940   16.3730 C.3     1  UNL1       -0.0559
     95 C          -0.5660   52.1830   14.8920 C.3     1  UNL1       -0.0653
     96 O           3.2210   48.9670   22.5710 O.3     1  UNL1       -0.3909
     97 O           2.0900   48.1470   24.8080 O.3     1  UNL1       -0.3916
     98 O           0.7480   47.3280   26.9410 O.3     1  UNL1       -0.3916
     99 O          -1.2960   44.2000   28.8700 O.3     1  UNL1       -0.3916
    100 O           0.3160   43.3970   30.9370 O.3     1  UNL1       -0.3916
    101 O           2.2220   42.9760   32.9390 O.3     1  UNL1       -0.3916
    102 O           4.1890   46.3400   34.1490 O.3     1  UNL1       -0.3874
@<TRIPOS>BOND
     1    56    95    1
     2    41    95    1
     3    34    95    1
     4    95    94    1
     5    54    93    1
     6    94    33    1
     7    94    93    1
     8    94    55    1
     9    32    93    1
    10    93    92    1
    11    28    88    1
    12    50    88    1
    13    57    88    1
    14    52    90    1
    15    88    87    1
    16    92    31    1
    17    92    90    1
    18    92    53    1
    19    30    90    1
    20    90    79    1
    21    60    59    2
    22    26    86    1
    23    49    86    1
    24    87    86    1
    25    87    27    1
    26    87    91    1
    27    59    91    1
    28    59    61    1
    29    86    85    1
    30    79    25    1
    31    79    61    1
    32    79    48    1
    33    11    61    1
    34    61    62    1
    35    85     2    1
    36    85    84    2
    37    62    12    1
    38    62    96    1
    39    62    63    1
    40    13    63    1
    41     1    84    1
    42    84    83    1
    43    35    96    1
    44    42    63    1
    45    63    64    1
    46    83     4    1
    47    83    82    2
    48    64    14    1
    49    64    65    1
    50    64    97    1
    51    15    65    1
    52    36    97    1
    53    43    65    1
    54     3    82    1
    55    82    81    1
    56    65    66    1
    57    81     5    1
    58    81    80    2
    59    66    16    1
    60    66    67    1
    61    66    98    1
    62    37    98    1
    63    17    67    1
    64    44    67    1
    65    67    68    1
    66     6    80    1
    67    80    78    1
    68    78     7    1
    69    78    77    2
    70    68    99    1
    71    68    18    1
    72    68    69    1
    73    45    69    1
    74    19    69    1
    75    38    99    1
    76    69    70    1
    77     8    77    1
    78    77    76    1
    79    39   100    1
    80    21    71    1
    81    70    20    1
    82    70    71    1
    83    70   100    1
    84    46    71    1
    85    76     9    1
    86    76    75    2
    87    71    72    1
    88    29    89    1
    89    75    89    1
    90    75    74    1
    91    89    58    1
    92    89    51    1
    93    23    73    1
    94    72    73    1
    95    72    22    1
    96    72   101    1
    97    40   101    1
    98    73    74    1
    99    73    47    1
   100    74    24    1
   101    74   102    1
   102   102    10    1
