@<TRIPOS>MOLECULE
42.80807
 102 102 0 0 0
SMALL
GASTEIGER

@<TRIPOS>ATOM
      1 H           2.5470   43.7470   16.5180 H       1  UNL1        0.0614
      2 H           0.4930   45.8150   17.5050 H       1  UNL1        0.0573
      3 H           2.3960   41.6530   17.8040 H       1  UNL1        0.0618
      4 H           0.1360   43.6240   18.4900 H       1  UNL1        0.0617
      5 H          -0.0080   41.5780   19.7840 H       1  UNL1        0.0618
      6 H           2.4200   39.7380   19.3510 H       1  UNL1        0.0618
      7 H           0.0270   39.7380   21.3440 H       1  UNL1        0.0618
      8 H           2.6050   38.0790   21.1600 H       1  UNL1        0.0618
      9 H           0.1980   38.2140   23.1170 H       1  UNL1        0.0618
     10 H           0.4630   35.1700   25.8470 H       1  UNL1        0.2102
     11 H           1.0360   48.7440   19.7870 H       1  UNL1        0.0439
     12 H           2.9870   47.7670   21.9430 H       1  UNL1        0.0602
     13 H           1.7740   45.9330   20.7010 H       1  UNL1        0.0315
     14 H           2.1260   45.6520   23.1990 H       1  UNL1        0.0595
     15 H           1.0280   43.8220   21.9440 H       1  UNL1        0.0315
     16 H           1.0020   43.6510   24.5060 H       1  UNL1        0.0595
     17 H           0.1390   41.7400   23.0870 H       1  UNL1        0.0315
     18 H          -1.7870   42.3020   25.4200 H       1  UNL1        0.0595
     19 H          -0.5130   40.8850   26.8270 H       1  UNL1        0.0315
     20 H           0.4700   39.4490   24.9410 H       1  UNL1        0.0595
     21 H           1.0680   39.2140   27.3980 H       1  UNL1        0.0315
     22 H           3.3270   38.7520   25.3770 H       1  UNL1        0.0595
     23 H           1.6570   36.8380   27.1240 H       1  UNL1        0.0318
     24 H           0.3120   37.2510   25.1470 H       1  UNL1        0.0641
     25 H           3.6300   50.1070   20.7000 H       1  UNL1        0.0274
     26 H           1.3680   47.1100   15.6630 H       1  UNL1        0.0343
     27 H           3.8090   46.4670   17.4170 H       1  UNL1        0.0734
     28 H           3.1990   48.9580   15.7270 H       1  UNL1        0.0265
     29 H           3.4530   36.4540   22.2740 H       1  UNL1        0.0275
     30 H           1.4610   50.9040   18.6850 H       1  UNL1        0.0265
     31 H           3.9160   52.4510   19.6720 H       1  UNL1        0.0265
     32 H           1.7630   53.1480   17.6030 H       1  UNL1        0.0265
     33 H           4.1940   54.7360   18.5890 H       1  UNL1        0.0263
     34 H           3.3420   56.5110   17.0900 H       1  UNL1        0.0230
     35 H           0.4180   48.9790   22.1300 H       1  UNL1        0.2098
     36 H           0.8170   47.4930   23.7220 H       1  UNL1        0.2098
     37 H          -0.5420   45.4610   24.5940 H       1  UNL1        0.2098
     38 H          -2.5410   40.7690   24.0560 H       1  UNL1        0.2098
     39 H           2.1980   40.1690   23.9190 H       1  UNL1        0.2098
     40 H           4.4800   37.8990   27.0570 H       1  UNL1        0.2098
     41 H           2.0450   55.4460   16.5210 H       1  UNL1        0.0230
     42 H           0.2430   46.7580   21.0450 H       1  UNL1        0.0315
     43 H          -0.5320   44.6550   22.0570 H       1  UNL1        0.0315
     44 H          -1.4140   42.5170   22.9910 H       1  UNL1        0.0315
     45 H           0.5550   42.1860   26.2890 H       1  UNL1        0.0315
     46 H           2.3330   40.4010   27.1570 H       1  UNL1        0.0315
     47 H           3.0210   36.3470   26.2000 H       1  UNL1        0.0318
     48 H           2.0120   50.6500   21.1390 H       1  UNL1        0.0274
     49 H           2.6140   45.9180   15.2840 H       1  UNL1        0.0343
     50 H           4.4260   47.7280   15.3400 H       1  UNL1        0.0265
     51 H           3.1570   35.3280   23.5800 H       1  UNL1        0.0275
     52 H           3.1390   50.5100   18.3020 H       1  UNL1        0.0265
     53 H           2.2390   52.8540   20.0500 H       1  UNL1        0.0265
     54 H           3.4440   52.7620   17.2330 H       1  UNL1        0.0265
     55 H           2.5110   55.1200   18.9590 H       1  UNL1        0.0263
     56 H           3.7370   55.0620   16.1500 H       1  UNL1        0.0230
     57 H           4.5870   48.7500   16.7840 H       1  UNL1        0.0265
     58 H           3.9830   36.8640   23.9080 H       1  UNL1        0.0275
     59 C           2.9470   47.9320   19.2400 C.2     1  UNL1        0.3130
     60 O           4.0300   47.4490   19.5370 O.2     1  UNL1       -0.2504
     61 C           2.0520   48.6910   20.2000 C.3     1  UNL1        0.0823
     62 C           1.9790   47.9320   21.5440 C.3     1  UNL1        0.0705
     63 C           1.2560   46.5720   21.4250 C.3     1  UNL1        0.0001
     64 C           1.1320   45.8220   22.7690 C.3     1  UNL1        0.0600
     65 C           0.4150   44.4710   22.5810 C.3     1  UNL1       -0.0006
     66 C           0.0900   43.7550   23.9080 C.3     1  UNL1        0.0599
     67 C          -0.5450   42.3840   23.6500 C.3     1  UNL1       -0.0006
     68 C          -1.0440   41.6720   24.9160 C.3     1  UNL1        0.0599
     69 C           0.0220   41.2880   25.9570 C.3     1  UNL1       -0.0006
     70 C           1.0160   40.2220   25.4750 C.3     1  UNL1        0.0599
     71 C           1.7750   39.6000   26.6530 C.3     1  UNL1       -0.0006
     72 C           2.7710   38.4890   26.2820 C.3     1  UNL1        0.0602
     73 C           2.1900   37.0680   26.1900 C.3     1  UNL1        0.0032
     74 C           1.2690   36.7360   25.0080 C.3     1  UNL1        0.0786
     75 C           1.8540   37.0390   23.6400 C.2     1  UNL1       -0.0445
     76 C           1.1810   37.8550   22.8040 C.2     1  UNL1       -0.0604
     77 C           1.6460   38.4050   21.5520 C.2     1  UNL1       -0.0617
     78 C           0.9720   39.3850   20.9320 C.2     1  UNL1       -0.0618
     79 C           2.5850   50.1290   20.3640 C.3     1  UNL1       -0.0377
     80 C           1.4880   40.0930   19.7840 C.2     1  UNL1       -0.0618
     81 C           0.9060   41.2090   19.3220 C.2     1  UNL1       -0.0618
     82 C           1.4940   42.0250   18.2850 C.2     1  UNL1       -0.0618
     83 C           1.0180   43.2410   17.9810 C.2     1  UNL1       -0.0621
     84 C           1.6850   44.1310   17.0610 C.2     1  UNL1       -0.0656
     85 C           1.3320   45.4180   16.9360 C.2     1  UNL1       -0.0805
     86 C           2.0940   46.4190   16.1090 C.3     1  UNL1        0.0026
     87 C           3.1030   47.1860   16.9790 C.3     1  UNL1        0.1037
     88 C           3.8740   48.2080   16.1540 C.3     1  UNL1       -0.0274
     89 C           3.1810   36.3940   23.3300 C.3     1  UNL1       -0.0411
     90 C           2.4880   50.9450   19.0680 C.3     1  UNL1       -0.0522
     91 O           2.3740   47.8930   18.0050 O.3     1  UNL1       -0.4611
     92 C           2.8890   52.4050   19.2900 C.3     1  UNL1       -0.0530
     93 C           2.7870   53.2060   17.9910 C.3     1  UNL1       -0.0533
     94 C           3.1690   54.6700   18.2060 C.3     1  UNL1       -0.0559
     95 C           3.0670   55.4670   16.9150 C.3     1  UNL1       -0.0653
     96 O           1.2810   48.7310   22.5120 O.3     1  UNL1       -0.3909
     97 O           0.3860   46.6090   23.7020 O.3     1  UNL1       -0.3916
     98 O          -0.8490   44.5280   24.6580 O.3     1  UNL1       -0.3916
     99 O          -1.7350   40.4770   24.5190 O.3     1  UNL1       -0.3916
    100 O           1.9460   40.8350   24.5830 O.3     1  UNL1       -0.3916
    101 O           3.7350   38.4520   27.3510 O.3     1  UNL1       -0.3916
    102 O           0.9780   35.3380   25.0390 O.3     1  UNL1       -0.3874
@<TRIPOS>BOND
     1    49    86    1
     2    50    88    1
     3    26    86    1
     4    28    88    1
     5    86    85    1
     6    86    87    1
     7    56    95    1
     8    88    57    1
     9    88    87    1
    10     1    84    1
    11    41    95    1
    12    95    34    1
    13    95    94    1
    14    85    84    2
    15    85     2    1
    16    87    27    1
    17    87    91    1
    18    84    83    1
    19    54    93    1
    20    32    93    1
    21     3    82    1
    22    83    82    2
    23    83     4    1
    24    93    94    1
    25    93    92    1
    26    91    59    1
    27    94    33    1
    28    94    55    1
    29    82    81    1
    30    52    90    1
    31    30    90    1
    32    90    92    1
    33    90    79    1
    34    59    60    2
    35    59    61    1
    36    92    31    1
    37    92    53    1
    38    81    80    2
    39    81     5    1
    40     6    80    1
    41    80    78    1
    42    11    61    1
    43    61    79    1
    44    61    62    1
    45    79    25    1
    46    79    48    1
    47    13    63    1
    48    78     7    1
    49    78    77    2
    50    42    63    1
    51     8    77    1
    52    63    62    1
    53    63    64    1
    54    62    12    1
    55    62    96    1
    56    77    76    1
    57    15    65    1
    58    43    65    1
    59    35    96    1
    60    29    89    1
    61    65    64    1
    62    65    66    1
    63    64    14    1
    64    64    97    1
    65    76     9    1
    66    76    75    2
    67    44    67    1
    68    17    67    1
    69    89    51    1
    70    89    75    1
    71    89    58    1
    72    75    74    1
    73    67    66    1
    74    67    68    1
    75    97    36    1
    76    66    16    1
    77    66    98    1
    78    39   100    1
    79    38    99    1
    80    99    68    1
    81   100    70    1
    82    37    98    1
    83    68    18    1
    84    68    69    1
    85    20    70    1
    86    74   102    1
    87    74    24    1
    88    74    73    1
    89   102    10    1
    90    22    72    1
    91    70    69    1
    92    70    71    1
    93    69    45    1
    94    69    19    1
    95    73    47    1
    96    73    72    1
    97    73    23    1
    98    72    71    1
    99    72   101    1
   100    71    46    1
   101    71    21    1
   102    40   101    1
