@<TRIPOS>MOLECULE
36.47900
 102 102 0 0 0
SMALL
GASTEIGER

@<TRIPOS>ATOM
      1 H          -2.2830   40.8720   21.5410 H       1  UNL1        0.0614
      2 H          -0.1080   42.0240   19.6940 H       1  UNL1        0.0573
      3 H          -2.2620   38.4160   21.5960 H       1  UNL1        0.0618
      4 H           0.0740   39.5880   19.9690 H       1  UNL1        0.0617
      5 H           0.3590   37.2150   20.4430 H       1  UNL1        0.0618
      6 H          -2.1610   35.9230   21.6520 H       1  UNL1        0.0618
      7 H           0.6970   34.9060   21.0160 H       1  UNL1        0.0618
      8 H          -1.9160   33.3940   21.6020 H       1  UNL1        0.0618
      9 H           1.0660   32.6750   21.6920 H       1  UNL1        0.0618
     10 H           1.0540   28.1890   21.8830 H       1  UNL1        0.2102
     11 H           0.9490   41.4580   23.8220 H       1  UNL1        0.0439
     12 H           2.1140   40.7710   21.6470 H       1  UNL1        0.0602
     13 H           1.7480   39.1540   23.5570 H       1  UNL1        0.0315
     14 H           2.8430   38.4700   21.3550 H       1  UNL1        0.0595
     15 H           2.3520   36.7710   23.1570 H       1  UNL1        0.0315
     16 H           3.4540   36.0780   20.9670 H       1  UNL1        0.0595
     17 H           2.8060   34.3780   22.7160 H       1  UNL1        0.0315
     18 H           3.9280   33.6720   20.5250 H       1  UNL1        0.0595
     19 H           3.0510   32.0080   22.2070 H       1  UNL1        0.0315
     20 H           4.2970   31.3040   19.9970 H       1  UNL1        0.0595
     21 H           3.6570   29.6270   22.4120 H       1  UNL1        0.0315
     22 H           3.4320   28.9930   19.4320 H       1  UNL1        0.0595
     23 H           1.0850   29.5050   19.4880 H       1  UNL1        0.0318
     24 H           1.4700   30.3850   22.3930 H       1  UNL1        0.0641
     25 H           3.5420   43.0380   24.3330 H       1  UNL1        0.0274
     26 H          -2.2800   43.2390   21.5450 H       1  UNL1        0.0343
     27 H           0.4490   44.3980   20.7800 H       1  UNL1        0.0734
     28 H          -1.5920   45.2790   22.8890 H       1  UNL1        0.0265
     29 H          -2.3500   31.3470   20.7780 H       1  UNL1        0.0275
     30 H           0.9670   42.7160   25.9600 H       1  UNL1        0.0265
     31 H           3.5000   44.3620   26.4820 H       1  UNL1        0.0265
     32 H           0.9140   44.0660   28.1010 H       1  UNL1        0.0265
     33 H           3.4410   45.7280   28.6100 H       1  UNL1        0.0263
     34 H           2.3210   46.3560   30.7230 H       1  UNL1        0.0230
     35 H           3.8790   42.2310   21.9010 H       1  UNL1        0.2098
     36 H           4.7870   39.8070   22.0190 H       1  UNL1        0.2098
     37 H           5.4610   37.2600   21.6880 H       1  UNL1        0.2098
     38 H           5.9930   34.6450   21.3480 H       1  UNL1        0.2098
     39 H           6.3260   31.9070   21.0600 H       1  UNL1        0.2098
     40 H           2.2990   27.3080   20.0770 H       1  UNL1        0.2098
     41 H           0.8730   45.4450   30.2600 H       1  UNL1        0.0230
     42 H           3.3680   39.5710   24.1610 H       1  UNL1        0.0315
     43 H           3.9760   37.0540   23.8210 H       1  UNL1        0.0315
     44 H           4.4290   34.5280   23.4200 H       1  UNL1        0.0315
     45 H           4.6460   31.9660   22.9640 H       1  UNL1        0.0315
     46 H           4.8630   28.9140   21.3950 H       1  UNL1        0.0315
     47 H           1.9830   30.9660   19.8980 H       1  UNL1        0.0318
     48 H           3.0890   41.5980   25.2450 H       1  UNL1        0.0274
     49 H          -1.8290   43.9260   19.9820 H       1  UNL1        0.0343
     50 H          -1.2680   46.1110   21.3490 H       1  UNL1        0.0265
     51 H          -2.0480   30.0170   21.8990 H       1  UNL1        0.0275
     52 H           1.4360   44.1700   25.0760 H       1  UNL1        0.0265
     53 H           3.0200   42.9200   27.3800 H       1  UNL1        0.0265
     54 H           1.3820   45.5050   27.1940 H       1  UNL1        0.0265
     55 H           2.9680   44.2920   29.5210 H       1  UNL1        0.0263
     56 H           1.3470   46.8880   29.3420 H       1  UNL1        0.0230
     57 H          -0.0180   46.0110   22.6100 H       1  UNL1        0.0265
     58 H          -1.5760   29.8860   20.1890 H       1  UNL1        0.0275
     59 C           1.5310   43.0670   22.5450 C.2     1  UNL1        0.3130
     60 O           2.3460   43.5940   21.7970 O.2     1  UNL1       -0.2504
     61 C           1.8820   41.9210   23.4760 C.3     1  UNL1        0.0823
     62 C           2.6350   40.8880   22.6050 C.3     1  UNL1        0.0705
     63 C           2.7450   39.4990   23.2610 C.3     1  UNL1        0.0001
     64 C           3.3870   38.4730   22.3080 C.3     1  UNL1        0.0600
     65 C           3.3790   37.0540   22.9000 C.3     1  UNL1       -0.0006
     66 C           3.9750   36.0180   21.9290 C.3     1  UNL1        0.0599
     67 C           3.8560   34.5910   22.4860 C.3     1  UNL1       -0.0006
     68 C           4.3990   33.5350   21.5060 C.3     1  UNL1        0.0599
     69 C           4.1180   32.1130   22.0130 C.3     1  UNL1       -0.0006
     70 C           4.5830   31.0350   21.0200 C.3     1  UNL1        0.0599
     71 C           4.0410   29.6430   21.3850 C.3     1  UNL1       -0.0006
     72 C           2.9680   29.1120   20.4190 C.3     1  UNL1        0.0602
     73 C           1.7040   29.9730   20.2660 C.3     1  UNL1        0.0032
     74 C           0.8500   30.0830   21.5420 C.3     1  UNL1        0.0786
     75 C          -0.2700   31.1040   21.3770 C.2     1  UNL1       -0.0445
     76 C           0.0300   32.4110   21.4990 C.2     1  UNL1       -0.0604
     77 C          -0.8550   33.5500   21.4310 C.2     1  UNL1       -0.0617
     78 C          -0.3660   34.7800   21.2120 C.2     1  UNL1       -0.0618
     79 C           2.6860   42.4430   24.6760 C.3     1  UNL1       -0.0377
     80 C          -1.1520   35.9910   21.2510 C.2     1  UNL1       -0.0618
     81 C          -0.6440   37.1700   20.8630 C.2     1  UNL1       -0.0618
     82 C          -1.3370   38.4270   21.0220 C.2     1  UNL1       -0.0618
     83 C          -0.8440   39.5820   20.5530 C.2     1  UNL1       -0.0621
     84 C          -1.4420   40.8620   20.8490 C.2     1  UNL1       -0.0656
     85 C          -0.9500   42.0200   20.3840 C.2     1  UNL1       -0.0805
     86 C          -1.4460   43.3690   20.8440 C.3     1  UNL1        0.0026
     87 C          -0.3180   44.1650   21.5290 C.3     1  UNL1        0.1037
     88 C          -0.8340   45.4680   22.1210 C.3     1  UNL1       -0.0274
     89 C          -1.6350   30.5650   21.0460 C.3     1  UNL1       -0.0411
     90 C           1.8290   43.3010   25.6160 C.3     1  UNL1       -0.0522
     91 O           0.2070   43.3600   22.6080 O.3     1  UNL1       -0.4611
     92 C           2.6340   43.7840   26.8250 C.3     1  UNL1       -0.0530
     93 C           1.7760   44.6470   27.7520 C.3     1  UNL1       -0.0533
     94 C           2.5780   45.1450   28.9540 C.3     1  UNL1       -0.0559
     95 C           1.7270   46.0090   29.8720 C.3     1  UNL1       -0.0653
     96 O           3.9640   41.3360   22.3000 O.3     1  UNL1       -0.3909
     97 O           4.7450   38.8230   22.0250 O.3     1  UNL1       -0.3916
     98 O           5.3590   36.2790   21.6850 O.3     1  UNL1       -0.3916
     99 O           5.8090   33.6760   21.3310 O.3     1  UNL1       -0.3916
    100 O           6.0110   30.9750   21.0420 O.3     1  UNL1       -0.3916
    101 O           2.5800   27.8080   20.8670 O.3     1  UNL1       -0.3916
    102 O           0.3010   28.8160   21.8870 O.3     1  UNL1       -0.3874
@<TRIPOS>BOND
     1    22    72    1
     2    23    73    1
     3     2    85    1
     4    47    73    1
     5     4    83    1
     6    49    86    1
     7    20    70    1
     8    40   101    1
     9    58    89    1
    10    73    72    1
    11    73    74    1
    12    85    86    1
    13    85    84    2
    14    72   101    1
    15    72    71    1
    16     5    81    1
    17    18    68    1
    18    83    84    1
    19    83    82    2
    20    29    89    1
    21    27    87    1
    22    86    87    1
    23    86    26    1
    24    84     1    1
    25    81    82    1
    26    81    80    2
    27    16    66    1
    28     7    78    1
    29    70   100    1
    30    70    71    1
    31    70    69    1
    32    82     3    1
    33   100    39    1
    34    89    75    1
    35    89    51    1
    36    78    80    1
    37    78    77    2
    38    80     6    1
    39    99    38    1
    40    99    68    1
    41    50    88    1
    42    14    64    1
    43    75    76    2
    44    75    74    1
    45    71    46    1
    46    71    21    1
    47    77    76    1
    48    77     8    1
    49    76     9    1
    50    68    69    1
    51    68    67    1
    52    87    88    1
    53    87    91    1
    54    74   102    1
    55    74    24    1
    56    12    62    1
    57    98    37    1
    58    98    66    1
    59    60    59    2
    60    10   102    1
    61    35    96    1
    62    66    67    1
    63    66    65    1
    64    69    19    1
    65    69    45    1
    66    36    97    1
    67    97    64    1
    68    88    57    1
    69    88    28    1
    70    96    62    1
    71    64    65    1
    72    64    63    1
    73    67    17    1
    74    67    44    1
    75    59    91    1
    76    59    61    1
    77    62    63    1
    78    62    61    1
    79    65    15    1
    80    65    43    1
    81    63    13    1
    82    63    42    1
    83    61    11    1
    84    61    79    1
    85    25    79    1
    86    79    48    1
    87    79    90    1
    88    52    90    1
    89    90    30    1
    90    90    92    1
    91    31    92    1
    92    92    53    1
    93    92    93    1
    94    54    93    1
    95    93    32    1
    96    93    94    1
    97    33    94    1
    98    94    55    1
    99    94    95    1
   100    56    95    1
   101    95    41    1
   102    95    34    1
