@<TRIPOS>MOLECULE
37.47207
 102 102 0 0 0
SMALL
GASTEIGER

@<TRIPOS>ATOM
      1 H          -3.4090   40.6450   22.9100 H       1  UNL1        0.0614
      2 H          -2.6580   40.2940   19.9500 H       1  UNL1        0.0573
      3 H          -3.9590   38.5450   24.0070 H       1  UNL1        0.0618
      4 H          -3.3200   38.1660   21.0220 H       1  UNL1        0.0617
      5 H          -4.0160   36.0610   22.1270 H       1  UNL1        0.0618
      6 H          -4.4710   36.4660   25.1420 H       1  UNL1        0.0618
      7 H          -4.7480   33.9820   23.2840 H       1  UNL1        0.0618
      8 H          -4.8850   34.4130   26.3240 H       1  UNL1        0.0618
      9 H          -5.9590   32.2810   26.3200 H       1  UNL1        0.0618
     10 H          -5.9080   28.5020   24.4550 H       1  UNL1        0.2102
     11 H           0.8860   41.6780   23.7870 H       1  UNL1        0.0439
     12 H           0.1810   39.6020   22.3020 H       1  UNL1        0.0602
     13 H           0.2280   39.6080   24.7990 H       1  UNL1        0.0315
     14 H          -0.2700   37.4860   23.4230 H       1  UNL1        0.0595
     15 H          -0.6410   37.4890   25.8590 H       1  UNL1        0.0315
     16 H          -0.6650   35.2640   24.4920 H       1  UNL1        0.0595
     17 H          -1.6200   35.3970   26.7840 H       1  UNL1        0.0315
     18 H          -1.2610   33.1530   25.5010 H       1  UNL1        0.0595
     19 H          -2.7500   33.3870   27.5200 H       1  UNL1        0.0315
     20 H          -2.1430   31.1550   26.2450 H       1  UNL1        0.0595
     21 H          -4.1610   31.5490   27.8680 H       1  UNL1        0.0315
     22 H          -3.0260   28.7320   28.0090 H       1  UNL1        0.0595
     23 H          -4.3030   28.0910   26.0580 H       1  UNL1        0.0318
     24 H          -5.9650   30.0270   26.0010 H       1  UNL1        0.0641
     25 H           3.5020   41.3310   22.2350 H       1  UNL1        0.0274
     26 H          -2.9980   42.7270   21.8340 H       1  UNL1        0.0343
     27 H          -0.7620   42.2070   19.7950 H       1  UNL1        0.0734
     28 H          -1.3280   44.6690   21.5560 H       1  UNL1        0.0265
     29 H          -3.0190   32.3950   23.9080 H       1  UNL1        0.0275
     30 H           2.6290   43.3310   24.3820 H       1  UNL1        0.0265
     31 H           5.1920   43.0750   22.7200 H       1  UNL1        0.0265
     32 H           4.3710   45.1460   24.8240 H       1  UNL1        0.0265
     33 H           6.9230   44.8500   23.1480 H       1  UNL1        0.0263
     34 H           7.7140   46.8180   24.4200 H       1  UNL1        0.0230
     35 H           2.9890   39.1750   22.4850 H       1  UNL1        0.2098
     36 H           1.8690   37.2880   22.6560 H       1  UNL1        0.2098
     37 H           1.6850   35.3040   24.4210 H       1  UNL1        0.2098
     38 H           1.0230   33.2240   26.0520 H       1  UNL1        0.2098
     39 H          -0.1550   31.0420   27.4520 H       1  UNL1        0.2098
     40 H          -5.0280   28.2020   28.4680 H       1  UNL1        0.2098
     41 H           6.1470   46.9550   25.2370 H       1  UNL1        0.0230
     42 H           1.9420   39.1410   24.7470 H       1  UNL1        0.0315
     43 H           1.0790   37.1480   26.1480 H       1  UNL1        0.0315
     44 H          -0.0100   35.1050   27.4800 H       1  UNL1        0.0315
     45 H          -1.3680   32.9680   28.5550 H       1  UNL1        0.0315
     46 H          -3.1640   30.8550   29.1090 H       1  UNL1        0.0315
     47 H          -3.0300   29.1760   25.6020 H       1  UNL1        0.0318
     48 H           3.3350   40.9830   23.9570 H       1  UNL1        0.0274
     49 H          -3.2240   42.7310   20.0830 H       1  UNL1        0.0343
     50 H          -1.5480   44.6050   19.7910 H       1  UNL1        0.0265
     51 H          -4.0380   31.3410   22.9080 H       1  UNL1        0.0275
     52 H           2.7570   43.6980   22.6610 H       1  UNL1        0.0265
     53 H           5.0600   42.7670   24.4530 H       1  UNL1        0.0265
     54 H           4.4850   45.4530   23.0900 H       1  UNL1        0.0265
     55 H           6.8070   44.5650   24.8860 H       1  UNL1        0.0263
     56 H           6.2660   47.2390   23.4890 H       1  UNL1        0.0230
     57 H           0.0690   44.4660   20.5110 H       1  UNL1        0.0265
     58 H          -2.8280   30.6630   24.0030 H       1  UNL1        0.0275
     59 C           0.8930   41.9120   21.6850 C.2     1  UNL1        0.3130
     60 O           1.5280   42.1380   20.6650 O.2     1  UNL1       -0.2504
     61 C           1.4420   41.2530   22.9400 C.3     1  UNL1        0.0823
     62 C           1.1300   39.7430   22.8350 C.3     1  UNL1        0.0705
     63 C           0.9860   39.0740   24.2140 C.3     1  UNL1        0.0001
     64 C           0.5940   37.5920   24.0900 C.3     1  UNL1        0.0600
     65 C           0.2430   36.9810   25.4560 C.3     1  UNL1       -0.0006
     66 C          -0.0110   35.4700   25.3490 C.3     1  UNL1        0.0599
     67 C          -0.6580   34.9000   26.6190 C.3     1  UNL1       -0.0006
     68 C          -0.8570   33.3830   26.4930 C.3     1  UNL1        0.0599
     69 C          -1.8090   32.8290   27.5600 C.3     1  UNL1       -0.0006
     70 C          -2.0650   31.3330   27.3180 C.3     1  UNL1        0.0599
     71 C          -3.3320   30.8520   28.0220 C.3     1  UNL1       -0.0006
     72 C          -3.7720   29.4390   27.6250 C.3     1  UNL1        0.0602
     73 C          -3.9870   29.1420   26.1320 C.3     1  UNL1        0.0032
     74 C          -5.0540   29.9820   25.3930 C.3     1  UNL1        0.0786
     75 C          -4.6290   31.3810   24.9710 C.2     1  UNL1       -0.0445
     76 C          -5.2050   32.4550   25.5500 C.2     1  UNL1       -0.0604
     77 C          -4.8990   33.8590   25.3860 C.2     1  UNL1       -0.0617
     78 C          -4.6980   34.5120   24.2320 C.2     1  UNL1       -0.0618
     79 C           2.9310   41.5870   23.1360 C.3     1  UNL1       -0.0377
     80 C          -4.4100   35.9300   24.1960 C.2     1  UNL1       -0.0618
     81 C          -4.0850   36.5910   23.0760 C.2     1  UNL1       -0.0618
     82 C          -3.8240   38.0140   23.0660 C.2     1  UNL1       -0.0618
     83 C          -3.4540   38.6890   21.9680 C.2     1  UNL1       -0.0621
     84 C          -3.2340   40.1170   21.9740 C.2     1  UNL1       -0.0656
     85 C          -2.8380   40.8060   20.8930 C.2     1  UNL1       -0.0805
     86 C          -2.6250   42.3000   20.8940 C.3     1  UNL1        0.0026
     87 C          -1.1450   42.6750   20.7110 C.3     1  UNL1        0.1037
     88 C          -0.9840   44.1900   20.6320 C.3     1  UNL1       -0.0274
     89 C          -3.5750   31.4540   23.8930 C.3     1  UNL1       -0.0411
     90 C           3.1630   43.0690   23.4610 C.3     1  UNL1       -0.0522
     91 O          -0.4290   42.1890   21.8650 O.3     1  UNL1       -0.4611
     92 C           4.6550   43.3680   23.6300 C.3     1  UNL1       -0.0530
     93 C           4.8990   44.8520   23.9090 C.3     1  UNL1       -0.0533
     94 C           6.3910   45.1510   24.0580 C.3     1  UNL1       -0.0559
     95 C           6.6410   46.6280   24.3160 C.3     1  UNL1       -0.0653
     96 O           2.1150   39.0350   22.0750 O.3     1  UNL1       -0.3909
     97 O           1.6760   36.8530   23.5170 O.3     1  UNL1       -0.3916
     98 O           1.2260   34.7860   25.1230 O.3     1  UNL1       -0.3916
     99 O           0.3980   32.7070   26.6120 O.3     1  UNL1       -0.3916
    100 O          -0.9530   30.5680   27.7800 O.3     1  UNL1       -0.3916
    101 O          -4.9990   29.1630   28.3150 O.3     1  UNL1       -0.3916
    102 O          -5.4110   29.2930   24.1890 O.3     1  UNL1       -0.3874
@<TRIPOS>BOND
     1    50    88    1
     2    27    87    1
     3     2    85    1
     4    49    86    1
     5    57    88    1
     6    88    87    1
     7    88    28    1
     8    60    59    2
     9    87    86    1
    10    87    91    1
    11    85    86    1
    12    85    84    2
    13    86    26    1
    14     4    83    1
    15    59    91    1
    16    59    61    1
    17    83    84    1
    18    83    82    2
    19    84     1    1
    20    96    35    1
    21    96    62    1
    22     5    81    1
    23    25    79    1
    24    12    62    1
    25    36    97    1
    26    52    90    1
    27    31    92    1
    28    62    61    1
    29    62    63    1
    30    51    89    1
    31    61    79    1
    32    61    11    1
    33    82    81    1
    34    82     3    1
    35    81    80    2
    36    54    93    1
    37    79    90    1
    38    79    48    1
    39    33    94    1
    40     7    78    1
    41    14    64    1
    42    90    92    1
    43    90    30    1
    44    56    95    1
    45    97    64    1
    46    92    93    1
    47    92    53    1
    48    89    29    1
    49    89    58    1
    50    89    75    1
    51    93    94    1
    52    93    32    1
    53    94    95    1
    54    94    55    1
    55    64    63    1
    56    64    65    1
    57   102    10    1
    58   102    74    1
    59    80    78    1
    60    80     6    1
    61    63    42    1
    62    63    13    1
    63    78    77    2
    64    95    34    1
    65    95    41    1
    66    37    98    1
    67    16    66    1
    68    75    74    1
    69    75    76    2
    70    98    66    1
    71    66    65    1
    72    66    67    1
    73    77    76    1
    74    77     8    1
    75    74    24    1
    76    74    73    1
    77    65    15    1
    78    65    43    1
    79    18    68    1
    80    76     9    1
    81    47    73    1
    82    38    99    1
    83    23    73    1
    84    73    72    1
    85    20    70    1
    86    68    99    1
    87    68    67    1
    88    68    69    1
    89    67    17    1
    90    67    44    1
    91    70    69    1
    92    70   100    1
    93    70    71    1
    94    39   100    1
    95    19    69    1
    96    69    45    1
    97    72    22    1
    98    72    71    1
    99    72   101    1
   100    21    71    1
   101    71    46    1
   102   101    40    1
