@<TRIPOS>MOLECULE
54.84233
 102 102 0 0 0
SMALL
GASTEIGER

@<TRIPOS>ATOM
      1 H           7.4610   47.9400   16.6630 H       1  UNL1        0.0614
      2 H           6.7890   45.1950   17.8830 H       1  UNL1        0.0573
      3 H           4.5240   45.9450   17.0410 H       1  UNL1        0.0618
      4 H           6.2800   46.9490   14.7190 H       1  UNL1        0.0617
      5 H           3.9750   46.2650   13.9920 H       1  UNL1        0.0618
      6 H           2.2460   45.6530   16.4630 H       1  UNL1        0.0618
      7 H           1.5540   45.9710   13.4410 H       1  UNL1        0.0618
      8 H          -0.0780   45.9470   16.0410 H       1  UNL1        0.0618
      9 H          -0.8680   46.1610   13.0480 H       1  UNL1        0.0618
     10 H          -5.1480   46.8250   13.2040 H       1  UNL1        0.2102
     11 H           4.4400   48.6310   20.9080 H       1  UNL1        0.0439
     12 H           3.9150   48.1180   18.3950 H       1  UNL1        0.0602
     13 H           3.2580   50.2190   19.4800 H       1  UNL1        0.0315
     14 H           2.2250   49.6510   17.1740 H       1  UNL1        0.0595
     15 H           1.9750   51.9130   18.0160 H       1  UNL1        0.0315
     16 H           0.3250   51.0990   16.1630 H       1  UNL1        0.0595
     17 H           0.6160   53.4720   16.4480 H       1  UNL1        0.0315
     18 H          -2.3980   53.1930   16.9460 H       1  UNL1        0.0595
     19 H          -0.9350   53.1720   14.2420 H       1  UNL1        0.0315
     20 H          -1.3410   50.8430   14.9300 H       1  UNL1        0.0595
     21 H          -2.1100   51.7390   12.5870 H       1  UNL1        0.0315
     22 H          -2.8020   49.5980   11.8400 H       1  UNL1        0.0595
     23 H          -4.5700   48.9640   13.2870 H       1  UNL1        0.0318
     24 H          -2.9780   47.0030   12.5230 H       1  UNL1        0.0641
     25 H           2.6630   46.1690   21.3420 H       1  UNL1        0.0274
     26 H           8.4500   47.6320   18.8240 H       1  UNL1        0.0343
     27 H           7.1490   45.3740   20.4640 H       1  UNL1        0.0734
     28 H           8.6680   47.8750   21.3570 H       1  UNL1        0.0265
     29 H          -2.1240   46.1810   16.6420 H       1  UNL1        0.0275
     30 H           4.1540   47.9480   23.3340 H       1  UNL1        0.0265
     31 H           2.4620   45.4090   23.6480 H       1  UNL1        0.0265
     32 H           3.9860   47.0370   25.7480 H       1  UNL1        0.0265
     33 H           2.2780   44.4960   25.9640 H       1  UNL1        0.0263
     34 H           2.7270   44.6660   28.3880 H       1  UNL1        0.0230
     35 H           1.6150   46.9690   19.6180 H       1  UNL1        0.2098
     36 H           0.9170   48.0010   17.8810 H       1  UNL1        0.2098
     37 H          -0.9100   49.9440   17.7580 H       1  UNL1        0.2098
     38 H          -1.6120   55.2140   17.1440 H       1  UNL1        0.2098
     39 H          -2.7530   50.9940   16.5130 H       1  UNL1        0.2098
     40 H          -1.0620   48.4670   12.6320 H       1  UNL1        0.2098
     41 H           3.7930   46.0570   28.1220 H       1  UNL1        0.0230
     42 H           1.8420   49.4370   20.2030 H       1  UNL1        0.0315
     43 H           0.7180   51.4150   19.1630 H       1  UNL1        0.0315
     44 H          -0.2230   53.4770   17.9710 H       1  UNL1        0.0315
     45 H          -2.6220   53.5660   14.4620 H       1  UNL1        0.0315
     46 H          -3.7570   51.4810   13.1910 H       1  UNL1        0.0315
     47 H          -3.6030   49.0190   14.7200 H       1  UNL1        0.0318
     48 H           2.2000   47.8070   21.8010 H       1  UNL1        0.0274
     49 H           9.0460   45.9700   18.9290 H       1  UNL1        0.0343
     50 H           9.2730   46.2040   21.4550 H       1  UNL1        0.0265
     51 H          -3.6510   46.8800   16.1710 H       1  UNL1        0.0275
     52 H           4.6700   46.3300   22.8520 H       1  UNL1        0.0265
     53 H           2.0140   47.0210   24.2090 H       1  UNL1        0.0265
     54 H           4.4650   45.4420   25.1610 H       1  UNL1        0.0265
     55 H           1.8220   46.0870   26.5770 H       1  UNL1        0.0263
     56 H           4.2480   44.4570   27.5040 H       1  UNL1        0.0230
     57 H           7.8640   46.7200   22.4100 H       1  UNL1        0.0265
     58 H          -2.2360   47.9330   16.3510 H       1  UNL1        0.0275
     59 C           5.0630   46.7190   20.2180 C.2     1  UNL1        0.3130
     60 O           4.8730   45.5480   19.9200 O.2     1  UNL1       -0.2504
     61 C           3.9590   47.7180   20.5320 C.3     1  UNL1        0.0823
     62 C           3.2040   48.0700   19.2270 C.3     1  UNL1        0.0705
     63 C           2.5010   49.4410   19.3260 C.3     1  UNL1        0.0001
     64 C           1.6440   49.7810   18.0940 C.3     1  UNL1        0.0600
     65 C           1.1280   51.2310   18.1610 C.3     1  UNL1       -0.0006
     66 C           0.0220   51.5150   17.1290 C.3     1  UNL1        0.0599
     67 C          -0.2330   53.0140   16.9730 C.3     1  UNL1       -0.0006
     68 C          -1.5480   53.4450   16.3040 C.3     1  UNL1        0.0599
     69 C          -1.8070   52.9520   14.8720 C.3     1  UNL1       -0.0006
     70 C          -2.2020   51.4770   14.7220 C.3     1  UNL1        0.0599
     71 C          -2.7130   51.1650   13.3030 C.3     1  UNL1       -0.0006
     72 C          -2.5810   49.6790   12.9120 C.3     1  UNL1        0.0602
     73 C          -3.5590   48.7550   13.6610 C.3     1  UNL1        0.0032
     74 C          -3.2700   47.2440   13.5520 C.3     1  UNL1        0.0786
     75 C          -2.2240   46.7610   14.5440 C.2     1  UNL1       -0.0445
     76 C          -1.0440   46.2660   14.1170 C.2     1  UNL1       -0.0604
     77 C           0.0890   45.9790   14.9680 C.2     1  UNL1       -0.0617
     78 C           1.3450   45.8850   14.5040 C.2     1  UNL1       -0.0618
     79 C           3.0610   47.1460   21.6450 C.3     1  UNL1       -0.0377
     80 C           2.4700   45.8150   15.4080 C.2     1  UNL1       -0.0618
     81 C           3.7340   46.0570   15.0310 C.2     1  UNL1       -0.0618
     82 C           4.7900   46.1810   16.0100 C.2     1  UNL1       -0.0618
     83 C           6.0130   46.6550   15.7310 C.2     1  UNL1       -0.0621
     84 C           6.9770   46.9700   16.7610 C.2     1  UNL1       -0.0656
     85 C           7.2590   46.1750   17.8040 C.2     1  UNL1       -0.0805
     86 C           8.1400   46.5870   18.9490 C.3     1  UNL1        0.0026
     87 C           7.4350   46.4220   20.3080 C.3     1  UNL1        0.1037
     88 C           8.3720   46.8240   21.4440 C.3     1  UNL1       -0.0274
     89 C          -2.5710   46.9490   16.0050 C.3     1  UNL1       -0.0411
     90 C           3.7930   46.9740   22.9820 C.3     1  UNL1       -0.0522
     91 O           6.2870   47.2980   20.3960 O.3     1  UNL1       -0.4611
     92 C           2.8670   46.3540   24.0310 C.3     1  UNL1       -0.0530
     93 C           3.6010   46.0920   25.3460 C.3     1  UNL1       -0.0533
     94 C           2.6770   45.4330   26.3710 C.3     1  UNL1       -0.0559
     95 C           3.4070   45.1380   27.6720 C.3     1  UNL1       -0.0653
     96 O           2.2380   47.0740   18.8760 O.3     1  UNL1       -0.3909
     97 O           0.5260   48.8900   18.0330 O.3     1  UNL1       -0.3916
     98 O          -1.1830   50.8680   17.5470 O.3     1  UNL1       -0.3916
     99 O          -1.5110   54.8840   16.2340 O.3     1  UNL1       -0.3916
    100 O          -3.2230   51.1620   15.6660 O.3     1  UNL1       -0.3916
    101 O          -1.2110   49.3210   13.0670 O.3     1  UNL1       -0.3916
    102 O          -4.4630   46.5040   13.8130 O.3     1  UNL1       -0.3874
@<TRIPOS>BOND
     1    22    72    1
     2    24    74    1
     3    21    71    1
     4    40   101    1
     5    72   101    1
     6    72    71    1
     7    72    73    1
     8     9    76    1
     9    46    71    1
    10    10   102    1
    11    23    73    1
    12    71    70    1
    13     7    78    1
    14    74    73    1
    15    74   102    1
    16    74    75    1
    17    73    47    1
    18     5    81    1
    19    76    75    2
    20    76    77    1
    21    19    69    1
    22    45    69    1
    23    78    77    2
    24    78    80    1
    25    75    89    1
    26     4    83    1
    27    70    69    1
    28    70    20    1
    29    70   100    1
    30    69    68    1
    31    77     8    1
    32    81    80    2
    33    81    82    1
    34    80     6    1
    35   100    39    1
    36    83    82    2
    37    83    84    1
    38    89    51    1
    39    89    58    1
    40    89    29    1
    41    82     3    1
    42    16    66    1
    43    99    68    1
    44    99    38    1
    45    68    18    1
    46    68    67    1
    47    17    67    1
    48     1    84    1
    49    84    85    2
    50    67    66    1
    51    67    44    1
    52    66    98    1
    53    66    65    1
    54    14    64    1
    55    98    37    1
    56    85     2    1
    57    85    86    1
    58    36    97    1
    59    15    65    1
    60    97    64    1
    61    64    65    1
    62    64    63    1
    63    65    43    1
    64    12    62    1
    65    26    86    1
    66    96    62    1
    67    96    35    1
    68    49    86    1
    69    86    87    1
    70    62    63    1
    71    62    61    1
    72    63    13    1
    73    63    42    1
    74    60    59    2
    75    59    91    1
    76    59    61    1
    77    87    91    1
    78    87    27    1
    79    87    88    1
    80    61    11    1
    81    61    79    1
    82    25    79    1
    83    28    88    1
    84    88    50    1
    85    88    57    1
    86    79    48    1
    87    79    90    1
    88    52    90    1
    89    90    30    1
    90    90    92    1
    91    31    92    1
    92    92    53    1
    93    92    93    1
    94    54    93    1
    95    93    32    1
    96    93    94    1
    97    33    94    1
    98    94    55    1
    99    94    95    1
   100    56    95    1
   101    95    41    1
   102    95    34    1
