@<TRIPOS>MOLECULE
39.82502
 102 102 0 0 0
SMALL
GASTEIGER

@<TRIPOS>ATOM
      1 H          -1.7600   41.7970   19.2950 H       1  UNL1        0.0614
      2 H          -1.1460   43.2190   21.9450 H       1  UNL1        0.0573
      3 H          -4.0420   40.9500   19.1970 H       1  UNL1        0.0618
      4 H          -3.3450   42.1140   21.9590 H       1  UNL1        0.0617
      5 H          -5.5850   41.0830   21.8990 H       1  UNL1        0.0618
      6 H          -6.2590   39.9540   19.1170 H       1  UNL1        0.0618
      7 H          -7.7770   39.9820   21.8350 H       1  UNL1        0.0618
      8 H          -8.3370   38.7040   19.0990 H       1  UNL1        0.0618
      9 H          -9.8410   38.7610   21.8100 H       1  UNL1        0.0618
     10 H         -13.4420   36.4370   21.1170 H       1  UNL1        0.2102
     11 H           2.6130   41.4630   24.7320 H       1  UNL1        0.0439
     12 H           1.1510   39.3310   25.0340 H       1  UNL1        0.0602
     13 H          -0.4770   39.8100   23.0550 H       1  UNL1        0.0315
     14 H          -1.1010   38.2710   24.9500 H       1  UNL1        0.0595
     15 H          -2.7670   38.7720   23.1400 H       1  UNL1        0.0315
     16 H          -3.4940   37.2980   25.0870 H       1  UNL1        0.0595
     17 H          -5.0570   37.7250   23.1690 H       1  UNL1        0.0315
     18 H          -5.9080   36.3640   25.1510 H       1  UNL1        0.0595
     19 H          -7.3320   36.7200   23.1250 H       1  UNL1        0.0315
     20 H          -8.3470   35.4460   25.0980 H       1  UNL1        0.0595
     21 H         -10.3470   37.3160   23.7290 H       1  UNL1        0.0315
     22 H          -9.0180   35.8330   22.0630 H       1  UNL1        0.0595
     23 H         -11.9720   35.0920   22.4670 H       1  UNL1        0.0318
     24 H         -11.7780   37.5350   22.0470 H       1  UNL1        0.0641
     25 H           3.2750   39.4200   23.7410 H       1  UNL1        0.0274
     26 H           0.1960   43.9250   19.5370 H       1  UNL1        0.0343
     27 H           2.3700   43.7490   20.5720 H       1  UNL1        0.0734
     28 H           0.3280   44.9860   22.4560 H       1  UNL1        0.0265
     29 H          -9.5060   37.1190   18.3870 H       1  UNL1        0.0275
     30 H           1.3550   40.0200   21.4380 H       1  UNL1        0.0265
     31 H           3.5960   37.9450   21.6680 H       1  UNL1        0.0265
     32 H           1.5880   38.5310   19.4270 H       1  UNL1        0.0265
     33 H           3.8140   36.4320   19.6460 H       1  UNL1        0.0263
     34 H           3.1690   35.8520   17.3300 H       1  UNL1        0.0230
     35 H           0.3490   41.9390   25.8020 H       1  UNL1        0.2098
     36 H          -0.9030   40.1190   26.5080 H       1  UNL1        0.2098
     37 H          -3.3540   39.2550   26.5260 H       1  UNL1        0.2098
     38 H          -5.8130   38.3870   26.4910 H       1  UNL1        0.2098
     39 H          -8.2740   37.5040   26.3730 H       1  UNL1        0.2098
     40 H          -9.4490   33.6100   22.2340 H       1  UNL1        0.2098
     41 H           1.8490   37.0330   17.3720 H       1  UNL1        0.0230
     42 H          -1.0620   41.1760   24.0120 H       1  UNL1        0.0315
     43 H          -3.3270   40.1790   24.0650 H       1  UNL1        0.0315
     44 H          -5.6420   39.1850   23.9900 H       1  UNL1        0.0315
     45 H          -7.9640   38.2140   23.8410 H       1  UNL1        0.0315
     46 H         -10.7590   35.8550   24.5910 H       1  UNL1        0.0315
     47 H         -11.0620   34.7170   21.0500 H       1  UNL1        0.0318
     48 H           3.5440   40.7300   22.6160 H       1  UNL1        0.0274
     49 H           0.6940   42.2410   19.7640 H       1  UNL1        0.0343
     50 H           1.2210   45.7450   21.1460 H       1  UNL1        0.0265
     51 H         -11.2570   36.9750   18.3830 H       1  UNL1        0.0275
     52 H           1.3470   38.6070   22.5020 H       1  UNL1        0.0265
     53 H           3.6310   39.3600   20.6130 H       1  UNL1        0.0265
     54 H           1.5510   37.1130   20.4770 H       1  UNL1        0.0265
     55 H           3.8640   37.8550   18.6040 H       1  UNL1        0.0263
     56 H           1.7950   35.6020   18.4200 H       1  UNL1        0.0230
     57 H           2.0770   45.1760   22.5960 H       1  UNL1        0.0265
     58 H         -10.2480   35.6820   19.0630 H       1  UNL1        0.0275
     59 C           1.3670   42.3160   23.3100 C.2     1  UNL1        0.3130
     60 O           0.5560   43.0520   23.8600 O.2     1  UNL1       -0.2504
     61 C           1.9050   41.0640   23.9900 C.3     1  UNL1        0.0823
     62 C           0.7870   40.3290   24.7640 C.3     1  UNL1        0.0705
     63 C          -0.5850   40.1910   24.0730 C.3     1  UNL1        0.0001
     64 C          -1.5420   39.2700   24.8570 C.3     1  UNL1        0.0600
     65 C          -2.9070   39.1680   24.1520 C.3     1  UNL1       -0.0006
     66 C          -3.9160   38.2950   24.9200 C.3     1  UNL1        0.0599
     67 C          -5.2430   38.1740   24.1510 C.3     1  UNL1       -0.0006
     68 C          -6.3060   37.3560   24.9090 C.3     1  UNL1        0.0599
     69 C          -7.5880   37.2090   24.0700 C.3     1  UNL1       -0.0006
     70 C          -8.7070   36.4350   24.7940 C.3     1  UNL1        0.0599
     71 C          -9.9860   36.3070   23.9550 C.3     1  UNL1       -0.0006
     72 C          -9.8490   35.4760   22.6760 C.3     1  UNL1        0.0602
     73 C         -11.1440   35.4670   21.8480 C.3     1  UNL1        0.0032
     74 C         -11.5380   36.8270   21.2450 C.3     1  UNL1        0.0786
     75 C         -10.4660   37.4060   20.3350 C.2     1  UNL1       -0.0445
     76 C          -9.6630   38.3850   20.8020 C.2     1  UNL1       -0.0604
     77 C          -8.5130   38.9590   20.1400 C.2     1  UNL1       -0.0617
     78 C          -7.6260   39.7320   20.7860 C.2     1  UNL1       -0.0618
     79 C           2.7530   40.1370   23.0940 C.3     1  UNL1       -0.0377
     80 C          -6.4040   40.1960   20.1680 C.2     1  UNL1       -0.0618
     81 C          -5.4460   40.8470   20.8460 C.2     1  UNL1       -0.0618
     82 C          -4.1850   41.2160   20.2430 C.2     1  UNL1       -0.0618
     83 C          -3.2040   41.8360   20.9160 C.2     1  UNL1       -0.0621
     84 C          -1.9290   42.1470   20.3120 C.2     1  UNL1       -0.0656
     85 C          -0.9670   42.8400   20.9410 C.2     1  UNL1       -0.0805
     86 C           0.3570   43.1440   20.2900 C.3     1  UNL1        0.0026
     87 C           1.4980   43.5980   21.2220 C.3     1  UNL1        0.1037
     88 C           1.2660   44.9490   21.8970 C.3     1  UNL1       -0.0274
     89 C         -10.3580   36.7670   18.9720 C.3     1  UNL1       -0.0411
     90 C           1.9940   39.3510   22.0240 C.3     1  UNL1       -0.0522
     91 O           1.9200   42.5210   22.0930 O.3     1  UNL1       -0.4611
     92 C           2.9650   38.6280   21.0870 C.3     1  UNL1       -0.0530
     93 C           2.2180   37.8460   20.0070 C.3     1  UNL1       -0.0533
     94 C           3.1910   37.1280   19.0720 C.3     1  UNL1       -0.0559
     95 C           2.4550   36.3600   17.9860 C.3     1  UNL1       -0.0653
     96 O           0.5730   41.0070   26.0160 O.3     1  UNL1       -0.3909
     97 O          -1.7620   39.7690   26.1800 O.3     1  UNL1       -0.3916
     98 O          -4.2000   38.8640   26.2030 O.3     1  UNL1       -0.3916
     99 O          -6.6480   37.9970   26.1410 O.3     1  UNL1       -0.3916
    100 O          -9.0990   37.1370   25.9810 O.3     1  UNL1       -0.3916
    101 O          -9.5330   34.1330   23.0500 O.3     1  UNL1       -0.3916
    102 O         -12.7370   36.6690   20.4890 O.3     1  UNL1       -0.3874
@<TRIPOS>BOND
     1    34    95    1
     2    41    95    1
     3    95    56    1
     4    95    94    1
     5    51    89    1
     6    29    89    1
     7    55    94    1
     8    89    58    1
     9    89    75    1
    10    94    33    1
    11    94    93    1
    12     8    77    1
    13     6    80    1
    14     3    82    1
    15     1    84    1
    16    32    93    1
    17    26    86    1
    18    49    86    1
    19    93    54    1
    20    93    92    1
    21    77    78    2
    22    77    76    1
    23    80    78    1
    24    80    81    2
    25    82    81    1
    26    82    83    2
    27    86    85    1
    28    86    87    1
    29    84    83    1
    30    84    85    2
    31    75    76    2
    32    75    74    1
    33   102    10    1
    34   102    74    1
    35    27    87    1
    36    53    92    1
    37    78     7    1
    38    76     9    1
    39    81     5    1
    40    83     4    1
    41    85     2    1
    42    47    73    1
    43    92    31    1
    44    92    90    1
    45    50    88    1
    46    87    88    1
    47    87    91    1
    48    74    73    1
    49    74    24    1
    50    30    90    1
    51    73    23    1
    52    73    72    1
    53    88    28    1
    54    88    57    1
    55    90    52    1
    56    90    79    1
    57    22    72    1
    58    91    59    1
    59    40   101    1
    60    48    79    1
    61    72   101    1
    62    72    71    1
    63    13    63    1
    64    79    25    1
    65    79    61    1
    66    19    69    1
    67    15    65    1
    68    17    67    1
    69    59    60    2
    70    59    61    1
    71    21    71    1
    72    45    69    1
    73    71    46    1
    74    71    70    1
    75    61    11    1
    76    61    62    1
    77    44    67    1
    78    42    63    1
    79    43    65    1
    80    69    70    1
    81    69    68    1
    82    63    62    1
    83    63    64    1
    84    67    68    1
    85    67    66    1
    86    65    64    1
    87    65    66    1
    88    62    12    1
    89    62    96    1
    90    70    20    1
    91    70   100    1
    92    64    14    1
    93    64    97    1
    94    68    18    1
    95    68    99    1
    96    66    16    1
    97    66    98    1
    98    35    96    1
    99   100    39    1
   100    99    38    1
   101    97    36    1
   102    98    37    1
