@<TRIPOS>MOLECULE
39.89358
 102 102 0 0 0
SMALL
GASTEIGER

@<TRIPOS>ATOM
      1 H           0.7210   45.7340   21.7220 H       1  UNL1        0.0614
      2 H           0.3600   43.4880   19.6520 H       1  UNL1        0.0573
      3 H           2.8770   46.7900   21.6330 H       1  UNL1        0.0618
      4 H           2.5310   44.6860   19.4130 H       1  UNL1        0.0617
      5 H           4.7110   45.8930   19.2820 H       1  UNL1        0.0618
      6 H           5.0680   47.7850   21.6830 H       1  UNL1        0.0618
      7 H           6.9140   47.0260   19.2950 H       1  UNL1        0.0618
      8 H           7.2950   48.6980   21.8440 H       1  UNL1        0.0618
      9 H           9.0620   48.1180   19.3700 H       1  UNL1        0.0618
     10 H          12.6920   50.3880   20.1490 H       1  UNL1        0.2102
     11 H           2.0490   40.7430   24.0160 H       1  UNL1        0.0439
     12 H           2.6530   43.7030   23.4330 H       1  UNL1        0.0602
     13 H           3.2160   42.3330   21.4530 H       1  UNL1        0.0315
     14 H           4.9480   44.0580   22.1850 H       1  UNL1        0.0595
     15 H           5.1950   42.8760   20.0420 H       1  UNL1        0.0315
     16 H           7.2540   44.1890   20.8780 H       1  UNL1        0.0595
     17 H           7.2020   43.2960   18.5690 H       1  UNL1        0.0315
     18 H           9.8770   42.4010   19.8030 H       1  UNL1        0.0595
     19 H           9.5320   44.7900   20.3120 H       1  UNL1        0.0315
     20 H          11.8140   44.0080   19.3080 H       1  UNL1        0.0595
     21 H          10.9640   46.8730   18.6410 H       1  UNL1        0.0315
     22 H          10.8430   46.3350   21.1590 H       1  UNL1        0.0595
     23 H          13.2450   48.0740   20.3570 H       1  UNL1        0.0318
     24 H          11.1940   48.9990   19.3090 H       1  UNL1        0.0641
     25 H           0.5700   43.2030   25.0610 H       1  UNL1        0.0274
     26 H          -2.0090   44.0630   20.3880 H       1  UNL1        0.0343
     27 H          -2.3170   42.6800   22.4480 H       1  UNL1        0.0734
     28 H          -0.8190   41.3380   20.1700 H       1  UNL1        0.0265
     29 H           8.9700   49.2170   23.0150 H       1  UNL1        0.0275
     30 H           0.4570   40.2450   25.8780 H       1  UNL1        0.0265
     31 H          -1.1410   42.7070   26.7620 H       1  UNL1        0.0265
     32 H          -1.3730   39.7740   27.6190 H       1  UNL1        0.0265
     33 H          -2.9000   42.2860   28.5000 H       1  UNL1        0.0263
     34 H          -4.0700   40.7580   30.0530 H       1  UNL1        0.0230
     35 H           3.9800   41.7170   24.9770 H       1  UNL1        0.2098
     36 H           5.5020   42.9650   24.0970 H       1  UNL1        0.2098
     37 H           7.6020   42.5240   22.5430 H       1  UNL1        0.2098
     38 H           9.4300   41.6170   17.7590 H       1  UNL1        0.2098
     39 H          10.7660   43.7500   17.2160 H       1  UNL1        0.2098
     40 H          12.7670   45.7630   22.1520 H       1  UNL1        0.2098
     41 H          -3.2140   39.3640   29.3700 H       1  UNL1        0.0230
     42 H           4.0330   41.1480   22.4910 H       1  UNL1        0.0315
     43 H           5.8710   41.4610   20.8670 H       1  UNL1        0.0315
     44 H           7.6030   41.6940   19.1350 H       1  UNL1        0.0315
     45 H           9.0300   45.1030   18.6410 H       1  UNL1        0.0315
     46 H          12.6110   46.2920   18.6500 H       1  UNL1        0.0315
     47 H          12.5200   48.0710   21.9210 H       1  UNL1        0.0318
     48 H           1.7730   42.3190   25.9810 H       1  UNL1        0.0274
     49 H          -1.3820   44.7480   21.8790 H       1  UNL1        0.0343
     50 H          -2.5530   41.5090   20.4050 H       1  UNL1        0.0265
     51 H          10.0420   50.5330   22.5400 H       1  UNL1        0.0275
     52 H          -0.7850   41.0320   24.9100 H       1  UNL1        0.0265
     53 H           0.0430   41.8400   27.7430 H       1  UNL1        0.0265
     54 H          -2.5490   40.6410   26.6280 H       1  UNL1        0.0265
     55 H          -1.7470   41.3910   29.4920 H       1  UNL1        0.0263
     56 H          -4.3730   40.2700   28.3770 H       1  UNL1        0.0230
     57 H          -1.6080   40.4740   21.4960 H       1  UNL1        0.0265
     58 H          10.7020   48.9800   23.0930 H       1  UNL1        0.0275
     59 C           0.7880   41.7730   22.6580 C.2     1  UNL1        0.3130
     60 O           1.0820   41.2090   21.6110 O.2     1  UNL1       -0.2504
     61 C           1.7200   41.7810   23.8680 C.3     1  UNL1        0.0823
     62 C           2.9650   42.6630   23.5850 C.3     1  UNL1        0.0705
     63 C           3.8010   42.2140   22.3700 C.3     1  UNL1        0.0001
     64 C           5.1290   42.9790   22.1980 C.3     1  UNL1        0.0600
     65 C           5.8160   42.5580   20.8880 C.3     1  UNL1       -0.0006
     66 C           7.2460   43.1040   20.7260 C.3     1  UNL1        0.0599
     67 C           7.7820   42.7600   19.3330 C.3     1  UNL1       -0.0006
     68 C           9.2800   43.0130   19.1170 C.3     1  UNL1        0.0599
     69 C           9.6860   44.4900   19.2720 C.3     1  UNL1       -0.0006
     70 C          11.1460   44.7420   18.8450 C.3     1  UNL1        0.0599
     71 C          11.6350   46.1660   19.1400 C.3     1  UNL1       -0.0006
     72 C          11.7840   46.4990   20.6270 C.3     1  UNL1        0.0602
     73 C          12.2770   47.9360   20.8580 C.3     1  UNL1        0.0032
     74 C          11.3100   49.0370   20.3980 C.3     1  UNL1        0.0786
     75 C           9.9510   48.9630   21.0740 C.2     1  UNL1       -0.0445
     76 C           8.9030   48.4480   20.3970 C.2     1  UNL1       -0.0604
     77 C           7.5630   48.2440   20.8950 C.2     1  UNL1       -0.0617
     78 C           6.6580   47.5000   20.2410 C.2     1  UNL1       -0.0618
     79 C           1.0270   42.2130   25.1840 C.3     1  UNL1       -0.0377
     80 C           5.3330   47.2620   20.7660 C.2     1  UNL1       -0.0618
     81 C           4.4520   46.4290   20.1930 C.2     1  UNL1       -0.0618
     82 C           3.1440   46.1950   20.7610 C.2     1  UNL1       -0.0618
     83 C           2.2760   45.2940   20.2780 C.2     1  UNL1       -0.0621
     84 C           0.9840   45.0870   20.8850 C.2     1  UNL1       -0.0656
     85 C           0.1140   44.1490   20.4810 C.2     1  UNL1       -0.0805
     86 C          -1.2230   43.9490   21.1430 C.3     1  UNL1        0.0026
     87 C          -1.3880   42.6030   21.8680 C.3     1  UNL1        0.1037
     88 C          -1.5980   41.4130   20.9340 C.3     1  UNL1       -0.0274
     89 C           9.9070   49.4470   22.5030 C.3     1  UNL1       -0.0411
     90 C          -0.0250   41.2090   25.6770 C.3     1  UNL1       -0.0522
     91 O          -0.3660   42.4470   22.8850 O.3     1  UNL1       -0.4611
     92 C          -0.7060   41.7180   26.9510 C.3     1  UNL1       -0.0530
     93 C          -1.8030   40.7640   27.4230 C.3     1  UNL1       -0.0533
     94 C          -2.4840   41.2890   28.6870 C.3     1  UNL1       -0.0559
     95 C          -3.6000   40.3640   29.1460 C.3     1  UNL1       -0.0653
     96 O           3.8250   42.6520   24.7380 O.3     1  UNL1       -0.3909
     97 O           6.0030   42.7010   23.2940 O.3     1  UNL1       -0.3916
     98 O           8.1050   42.5130   21.6970 O.3     1  UNL1       -0.3916
     99 O           9.6000   42.5770   17.7850 O.3     1  UNL1       -0.3916
    100 O          11.2480   44.5810   17.4220 O.3     1  UNL1       -0.3916
    101 O          12.7420   45.6020   21.1930 O.3     1  UNL1       -0.3916
    102 O          11.8850   50.3110   20.6870 O.3     1  UNL1       -0.3874
@<TRIPOS>BOND
     1    39   100    1
     2   100    70    1
     3    38    99    1
     4    99    68    1
     5    17    67    1
     6    21    71    1
     7    45    69    1
     8    46    71    1
     9    70    71    1
    10    70    69    1
    11    70    20    1
    12    68    69    1
    13    68    67    1
    14    68    18    1
    15    44    67    1
    16    71    72    1
    17    69    19    1
    18     5    81    1
    19     7    78    1
    20    24    74    1
    21    67    66    1
    22     9    76    1
    23     4    83    1
    24     2    85    1
    25    15    65    1
    26    10   102    1
    27    28    88    1
    28    81    82    1
    29    81    80    2
    30    78    80    1
    31    78    77    2
    32    83    82    2
    33    83    84    1
    34    23    73    1
    35    26    86    1
    36    76    77    1
    37    76    75    2
    38    74   102    1
    39    74    73    1
    40    74    75    1
    41    50    88    1
    42    85    84    2
    43    85    86    1
    44    72    73    1
    45    72    22    1
    46    72   101    1
    47    66    16    1
    48    66    65    1
    49    66    98    1
    50    82     3    1
    51    80     6    1
    52    73    47    1
    53    43    65    1
    54    84     1    1
    55    65    64    1
    56    77     8    1
    57    88    57    1
    58    88    87    1
    59    75    89    1
    60    86    87    1
    61    86    49    1
    62   101    40    1
    63    13    63    1
    64    60    59    2
    65    98    37    1
    66    87    27    1
    67    87    91    1
    68    14    64    1
    69    64    63    1
    70    64    97    1
    71    63    42    1
    72    63    62    1
    73    89    51    1
    74    89    29    1
    75    89    58    1
    76    59    91    1
    77    59    61    1
    78    97    36    1
    79    12    62    1
    80    62    61    1
    81    62    96    1
    82    61    11    1
    83    61    79    1
    84    96    35    1
    85    52    90    1
    86    25    79    1
    87    79    90    1
    88    79    48    1
    89    90    30    1
    90    90    92    1
    91    54    93    1
    92    31    92    1
    93    92    93    1
    94    92    53    1
    95    93    32    1
    96    93    94    1
    97    56    95    1
    98    33    94    1
    99    94    95    1
   100    94    55    1
   101    95    41    1
   102    95    34    1
