@<TRIPOS>MOLECULE
39.13277
 102 102 0 0 0
SMALL
GASTEIGER

@<TRIPOS>ATOM
      1 H           1.2650   46.4130   22.7750 H       1  UNL1        0.0614
      2 H          -1.4880   45.0960   22.4080 H       1  UNL1        0.0573
      3 H           1.3610   47.6910   24.8980 H       1  UNL1        0.0618
      4 H          -1.2460   46.0890   24.5880 H       1  UNL1        0.0617
      5 H          -1.0440   47.1050   26.7900 H       1  UNL1        0.0618
      6 H           1.4340   48.9100   27.0300 H       1  UNL1        0.0618
      7 H          -0.8310   48.1080   29.0110 H       1  UNL1        0.0618
      8 H           1.5580   50.0260   29.1810 H       1  UNL1        0.0618
      9 H          -0.5150   48.9740   31.2310 H       1  UNL1        0.0618
     10 H          -0.5420   51.3140   34.5550 H       1  UNL1        0.2102
     11 H           2.2000   41.5470   23.0710 H       1  UNL1        0.0439
     12 H           0.0510   41.2690   25.2280 H       1  UNL1        0.0602
     13 H           1.2530   43.4860   25.0400 H       1  UNL1        0.0315
     14 H           0.6120   42.6480   27.3340 H       1  UNL1        0.0595
     15 H           1.7820   44.8330   27.1710 H       1  UNL1        0.0315
     16 H           1.3990   43.8160   29.5030 H       1  UNL1        0.0595
     17 H           2.2590   46.1430   29.2710 H       1  UNL1        0.0315
     18 H           2.1390   44.9910   31.5840 H       1  UNL1        0.0595
     19 H           2.6480   47.4620   31.2480 H       1  UNL1        0.0315
     20 H           3.0250   45.8370   33.6270 H       1  UNL1        0.0595
     21 H           2.8940   48.8740   33.3490 H       1  UNL1        0.0315
     22 H           0.8540   47.4800   32.4690 H       1  UNL1        0.0595
     23 H           0.1000   49.0250   34.9840 H       1  UNL1        0.0318
     24 H           1.4700   50.6260   33.8850 H       1  UNL1        0.0641
     25 H           1.7570   39.1690   23.1000 H       1  UNL1        0.0274
     26 H           1.1160   45.1050   20.7380 H       1  UNL1        0.0343
     27 H          -1.2340   43.1100   20.8530 H       1  UNL1        0.0734
     28 H           1.1860   43.1660   18.9800 H       1  UNL1        0.0265
     29 H           2.0540   51.6540   30.4630 H       1  UNL1        0.0275
     30 H          -1.2210   39.8480   22.8160 H       1  UNL1        0.0265
     31 H           0.2360   37.1580   22.8800 H       1  UNL1        0.0265
     32 H          -2.7210   37.8780   22.5020 H       1  UNL1        0.0265
     33 H          -1.3090   35.1580   22.6010 H       1  UNL1        0.0263
     34 H          -3.5510   34.2460   22.0930 H       1  UNL1        0.0230
     35 H           2.6710   40.1610   25.1220 H       1  UNL1        0.2098
     36 H           1.9710   40.7530   27.1440 H       1  UNL1        0.2098
     37 H           3.0580   42.1660   29.0200 H       1  UNL1        0.2098
     38 H           4.0280   43.6740   31.0020 H       1  UNL1        0.2098
     39 H           5.2080   46.1890   33.3300 H       1  UNL1        0.2098
     40 H          -0.3620   46.4720   34.0830 H       1  UNL1        0.2098
     41 H          -4.2590   35.8690   22.1620 H       1  UNL1        0.0230
     42 H           2.7920   42.6170   25.1810 H       1  UNL1        0.0315
     43 H           3.3510   44.0060   27.1560 H       1  UNL1        0.0315
     44 H           3.9200   45.5230   29.1570 H       1  UNL1        0.0315
     45 H           4.3640   47.0720   31.2880 H       1  UNL1        0.0315
     46 H           2.7080   47.9960   34.8550 H       1  UNL1        0.0315
     47 H          -0.8890   48.7330   33.6040 H       1  UNL1        0.0318
     48 H           1.0160   39.8850   21.6820 H       1  UNL1        0.0274
     49 H          -0.4800   45.4310   20.0440 H       1  UNL1        0.0343
     50 H          -0.5010   43.4720   18.5010 H       1  UNL1        0.0265
     51 H           2.9410   51.0730   31.8830 H       1  UNL1        0.0275
     52 H          -0.4870   39.1140   24.2420 H       1  UNL1        0.0265
     53 H          -0.4560   37.8970   21.4330 H       1  UNL1        0.0265
     54 H          -2.0350   37.1380   23.9490 H       1  UNL1        0.0265
     55 H          -1.9750   35.8990   21.1440 H       1  UNL1        0.0263
     56 H          -3.5930   35.1270   23.6300 H       1  UNL1        0.0230
     57 H          -0.0010   41.8750   19.1000 H       1  UNL1        0.0265
     58 H           1.7360   52.3690   32.0280 H       1  UNL1        0.0275
     59 C           0.2090   42.2080   22.7090 C.2     1  UNL1        0.3130
     60 O          -0.8820   42.5100   23.1720 O.2     1  UNL1       -0.2504
     61 C           1.1840   41.2450   23.3600 C.3     1  UNL1        0.0823
     62 C           1.0940   41.3190   24.8980 C.3     1  UNL1        0.0705
     63 C           1.7330   42.6010   25.4720 C.3     1  UNL1        0.0001
     64 C           1.6590   42.6760   27.0110 C.3     1  UNL1        0.0600
     65 C           2.3260   43.9580   27.5450 C.3     1  UNL1       -0.0006
     66 C           2.3960   43.9950   29.0830 C.3     1  UNL1        0.0599
     67 C           2.9310   45.3410   29.5980 C.3     1  UNL1       -0.0006
     68 C           3.0680   45.3560   31.1310 C.3     1  UNL1        0.0599
     69 C           3.3790   46.7590   31.6590 C.3     1  UNL1       -0.0006
     70 C           3.3730   46.7860   33.2030 C.3     1  UNL1        0.0599
     71 C           2.5260   47.9340   33.7740 C.3     1  UNL1       -0.0006
     72 C           1.0270   47.7400   33.5150 C.3     1  UNL1        0.0602
     73 C           0.1510   48.9440   33.8890 C.3     1  UNL1        0.0032
     74 C           0.5840   50.3070   33.3210 C.3     1  UNL1        0.0786
     75 C           0.9010   50.4000   31.8380 C.2     1  UNL1       -0.0445
     76 C           0.3000   49.6230   30.9140 C.2     1  UNL1       -0.0604
     77 C           0.6790   49.4890   29.5250 C.2     1  UNL1       -0.0617
     78 C           0.0450   48.6620   28.6800 C.2     1  UNL1       -0.0618
     79 C           0.9460   39.8340   22.7770 C.3     1  UNL1       -0.0377
     80 C           0.5130   48.4170   27.3340 C.2     1  UNL1       -0.0618
     81 C          -0.1180   47.5910   26.4880 C.2     1  UNL1       -0.0618
     82 C           0.3920   47.2770   25.1720 C.2     1  UNL1       -0.0618
     83 C          -0.2720   46.4910   24.3140 C.2     1  UNL1       -0.0621
     84 C           0.2500   46.1120   23.0230 C.2     1  UNL1       -0.0656
     85 C          -0.4680   45.3840   22.1560 C.2     1  UNL1       -0.0805
     86 C           0.0460   44.8840   20.8350 C.3     1  UNL1        0.0026
     87 C          -0.1870   43.3720   20.6550 C.3     1  UNL1        0.1037
     88 C           0.1380   42.9550   19.2230 C.3     1  UNL1       -0.0274
     89 C           1.9670   51.4230   31.5270 C.3     1  UNL1       -0.0411
     90 C          -0.4010   39.2050   23.1530 C.3     1  UNL1       -0.0522
     91 O           0.7000   42.6130   21.5040 O.3     1  UNL1       -0.4611
     92 C          -0.5620   37.8200   22.5220 C.3     1  UNL1       -0.0530
     93 C          -1.9250   37.2130   22.8610 C.3     1  UNL1       -0.0533
     94 C          -2.0920   35.8310   22.2320 C.3     1  UNL1       -0.0559
     95 C          -3.4540   35.2360   22.5490 C.3     1  UNL1       -0.0653
     96 O           1.7630   40.1870   25.4780 O.3     1  UNL1       -0.3909
     97 O           2.3210   41.5520   27.5990 O.3     1  UNL1       -0.3916
     98 O           3.2600   42.9610   29.5670 O.3     1  UNL1       -0.3916
     99 O           4.1300   44.4920   31.5410 O.3     1  UNL1       -0.3916
    100 O           4.7200   46.9730   33.6510 O.3     1  UNL1       -0.3916
    101 O           0.5820   46.6100   34.2730 O.3     1  UNL1       -0.3916
    102 O          -0.4370   51.2660   33.5900 O.3     1  UNL1       -0.3874
@<TRIPOS>BOND
     1    50    88    1
     2    28    88    1
     3    57    88    1
     4    88    87    1
     5    49    86    1
     6    87    86    1
     7    87    27    1
     8    87    91    1
     9    26    86    1
    10    86    85    1
    11    55    94    1
    12    53    92    1
    13    91    59    1
    14    48    79    1
    15    34    95    1
    16    85     2    1
    17    85    84    2
    18    41    95    1
    19    94    95    1
    20    94    33    1
    21    94    93    1
    22    32    93    1
    23    92    93    1
    24    92    31    1
    25    92    90    1
    26    95    56    1
    27    59    60    2
    28    59    61    1
    29     1    84    1
    30    79    25    1
    31    79    90    1
    32    79    61    1
    33    30    90    1
    34    93    54    1
    35    84    83    1
    36    11    61    1
    37    90    52    1
    38    61    62    1
    39    83     4    1
    40    83    82    2
    41    62    12    1
    42    62    63    1
    43    62    96    1
    44     3    82    1
    45    13    63    1
    46    35    96    1
    47    82    81    1
    48    42    63    1
    49    63    64    1
    50    81     5    1
    51    81    80    2
    52    64    14    1
    53    64    65    1
    54    64    97    1
    55     6    80    1
    56    36    97    1
    57    43    65    1
    58    15    65    1
    59    80    78    1
    60    65    66    1
    61    78     7    1
    62    78    77    2
    63    37    98    1
    64    66    16    1
    65    66    98    1
    66    66    67    1
    67    44    67    1
    68     8    77    1
    69    17    67    1
    70    77    76    1
    71    67    68    1
    72    29    89    1
    73    76     9    1
    74    76    75    2
    75    38    99    1
    76    68    99    1
    77    68    18    1
    78    68    69    1
    79    19    69    1
    80    45    69    1
    81    89    75    1
    82    89    51    1
    83    89    58    1
    84    69    70    1
    85    75    74    1
    86    22    72    1
    87    70    20    1
    88    70   100    1
    89    70    71    1
    90    74   102    1
    91    74    24    1
    92    74    73    1
    93    39   100    1
    94    21    71    1
    95    72    71    1
    96    72    73    1
    97    72   101    1
    98   102    10    1
    99    47    73    1
   100    71    46    1
   101    73    23    1
   102    40   101    1
