@<TRIPOS>MOLECULE
39.49585
 102 102 0 0 0
SMALL
GASTEIGER

@<TRIPOS>ATOM
      1 H           1.6940   45.9360   26.4690 H       1  UNL1        0.0614
      2 H           3.5840   43.5090   26.5260 H       1  UNL1        0.0573
      3 H          -0.1330   45.6740   28.1340 H       1  UNL1        0.0618
      4 H           1.8700   43.3430   28.1950 H       1  UNL1        0.0617
      5 H          -0.0070   42.9660   29.6680 H       1  UNL1        0.0618
      6 H          -1.9930   45.3120   29.7050 H       1  UNL1        0.0618
      7 H          -1.9550   42.5020   31.0490 H       1  UNL1        0.0618
      8 H          -3.9080   44.8660   31.1360 H       1  UNL1        0.0618
      9 H          -3.9420   41.9830   32.2830 H       1  UNL1        0.0618
     10 H          -7.1000   41.8640   35.1440 H       1  UNL1        0.2102
     11 H           3.4660   40.6570   24.3700 H       1  UNL1        0.0439
     12 H           1.4050   39.4660   25.0800 H       1  UNL1        0.0602
     13 H          -0.2150   40.2840   23.3170 H       1  UNL1        0.0315
     14 H          -1.0100   39.3650   25.5660 H       1  UNL1        0.0595
     15 H          -2.5580   40.2770   23.6550 H       1  UNL1        0.0315
     16 H          -4.6300   40.1680   24.9580 H       1  UNL1        0.0595
     17 H          -3.8890   41.3250   27.0580 H       1  UNL1        0.0315
     18 H          -5.8910   39.6880   27.0420 H       1  UNL1        0.0595
     19 H          -5.4280   41.0970   29.0120 H       1  UNL1        0.0315
     20 H          -7.1660   39.1660   29.2310 H       1  UNL1        0.0595
     21 H          -5.6110   39.9250   31.7640 H       1  UNL1        0.0315
     22 H          -6.7450   41.9160   30.5970 H       1  UNL1        0.0595
     23 H          -8.1220   40.9480   33.1710 H       1  UNL1        0.0318
     24 H          -5.6900   41.2870   33.5600 H       1  UNL1        0.0641
     25 H           1.7480   39.9270   21.9390 H       1  UNL1        0.0274
     26 H           4.9250   44.8830   25.0760 H       1  UNL1        0.0343
     27 H           2.2790   44.6520   23.5410 H       1  UNL1        0.0734
     28 H           5.1950   44.4840   22.5780 H       1  UNL1        0.0265
     29 H          -5.6120   45.4020   32.2400 H       1  UNL1        0.0275
     30 H           4.7300   39.6950   22.6090 H       1  UNL1        0.0265
     31 H           3.2100   38.8260   20.0960 H       1  UNL1        0.0265
     32 H           6.1740   38.6780   20.8750 H       1  UNL1        0.0265
     33 H           4.7280   37.7390   18.3400 H       1  UNL1        0.0263
     34 H           6.9610   36.8970   17.6760 H       1  UNL1        0.0230
     35 H           1.4820   42.2090   25.7940 H       1  UNL1        0.2098
     36 H          -0.1080   41.0970   26.7800 H       1  UNL1        0.2098
     37 H          -3.5600   38.2970   24.3310 H       1  UNL1        0.2098
     38 H          -4.2800   37.8920   26.8020 H       1  UNL1        0.2098
     39 H          -5.3900   37.6130   29.1990 H       1  UNL1        0.2098
     40 H          -9.0140   41.8300   30.4970 H       1  UNL1        0.2098
     41 H           7.6850   37.5890   19.1380 H       1  UNL1        0.0230
     42 H          -0.1540   41.8910   24.0760 H       1  UNL1        0.0315
     43 H          -2.7750   41.7050   24.6810 H       1  UNL1        0.0315
     44 H          -2.8770   39.9120   27.4480 H       1  UNL1        0.0315
     45 H          -4.2230   39.9370   29.5950 H       1  UNL1        0.0315
     46 H          -7.1560   39.1040   31.7590 H       1  UNL1        0.0315
     47 H          -8.2990   42.5400   32.5340 H       1  UNL1        0.0318
     48 H           2.4340   38.7380   23.0480 H       1  UNL1        0.0274
     49 H           3.6850   46.1260   24.9120 H       1  UNL1        0.0343
     50 H           4.1130   45.8760   22.3290 H       1  UNL1        0.0265
     51 H          -6.5780   44.9160   33.6120 H       1  UNL1        0.0275
     52 H           4.0240   40.7860   21.4160 H       1  UNL1        0.0265
     53 H           3.8840   37.7280   21.3040 H       1  UNL1        0.0265
     54 H           5.4930   39.7400   19.6410 H       1  UNL1        0.0265
     55 H           5.3980   36.6750   19.5790 H       1  UNL1        0.0263
     56 H           7.0140   38.6560   17.8890 H       1  UNL1        0.0230
     57 H           3.7720   44.3100   21.5630 H       1  UNL1        0.0265
     58 H          -7.1270   44.5450   31.9650 H       1  UNL1        0.0275
     59 C           2.4900   42.1790   23.2520 C.2     1  UNL1        0.3130
     60 O           1.6820   42.5850   22.4290 O.2     1  UNL1       -0.2504
     61 C           2.5330   40.7640   23.7990 C.3     1  UNL1        0.0823
     62 C           1.3670   40.5210   24.7820 C.3     1  UNL1        0.0705
     63 C          -0.0520   40.8150   24.2610 C.3     1  UNL1        0.0001
     64 C          -1.1430   40.4120   25.2750 C.3     1  UNL1        0.0600
     65 C          -2.5490   40.6310   24.6930 C.3     1  UNL1       -0.0006
     66 C          -3.6810   39.9040   25.4410 C.3     1  UNL1        0.0599
     67 C          -3.7900   40.2400   26.9370 C.3     1  UNL1       -0.0006
     68 C          -4.9710   39.5230   27.6150 C.3     1  UNL1        0.0599
     69 C          -5.1740   40.0340   29.0540 C.3     1  UNL1       -0.0006
     70 C          -6.2480   39.2440   29.8240 C.3     1  UNL1        0.0599
     71 C          -6.5510   39.8370   31.2070 C.3     1  UNL1       -0.0006
     72 C          -7.2980   41.1740   31.1800 C.3     1  UNL1        0.0602
     73 C          -7.5820   41.7090   32.5920 C.3     1  UNL1        0.0032
     74 C          -6.3370   42.1520   33.3750 C.3     1  UNL1        0.0786
     75 C          -5.5590   43.2600   32.6830 C.2     1  UNL1       -0.0445
     76 C          -4.3470   42.9880   32.1550 C.2     1  UNL1       -0.0604
     77 C          -3.5270   43.8750   31.3610 C.2     1  UNL1       -0.0617
     78 C          -2.3480   43.4970   30.8450 C.2     1  UNL1       -0.0618
     79 C           2.5690   39.7480   22.6440 C.3     1  UNL1       -0.0377
     80 C          -1.5750   44.3410   29.9610 C.2     1  UNL1       -0.0618
     81 C          -0.4150   43.9440   29.4190 C.2     1  UNL1       -0.0618
     82 C           0.3090   44.7310   28.4450 C.2     1  UNL1       -0.0618
     83 C           1.4460   44.2960   27.8830 C.2     1  UNL1       -0.0621
     84 C           2.1170   44.9940   26.8100 C.2     1  UNL1       -0.0656
     85 C           3.1780   44.4620   26.1880 C.2     1  UNL1       -0.0805
     86 C           3.8450   45.0430   24.9690 C.3     1  UNL1        0.0026
     87 C           3.3300   44.3670   23.6840 C.3     1  UNL1        0.1037
     88 C           4.1480   44.7910   22.4720 C.3     1  UNL1       -0.0274
     89 C          -6.2500   44.6000   32.6160 C.3     1  UNL1       -0.0411
     90 C           3.9060   39.8060   21.8930 C.3     1  UNL1       -0.0522
     91 O           3.4430   42.9390   23.8570 O.3     1  UNL1       -0.4611
     92 C           4.0140   38.7100   20.8330 C.3     1  UNL1       -0.0530
     93 C           5.3730   38.7650   20.1300 C.3     1  UNL1       -0.0533
     94 C           5.5170   37.6510   19.0950 C.3     1  UNL1       -0.0559
     95 C           6.8750   37.7040   18.4110 C.3     1  UNL1       -0.0653
     96 O           1.5970   41.2580   25.9910 O.3     1  UNL1       -0.3909
     97 O          -1.0190   41.2250   26.4420 O.3     1  UNL1       -0.3916
     98 O          -3.5250   38.4880   25.2870 O.3     1  UNL1       -0.3916
     99 O          -4.7320   38.1120   27.6480 O.3     1  UNL1       -0.3916
    100 O          -5.7710   37.9110   30.0550 O.3     1  UNL1       -0.3916
    101 O          -8.5480   40.9760   30.5130 O.3     1  UNL1       -0.3916
    102 O          -6.7410   42.6260   34.6580 O.3     1  UNL1       -0.3874
@<TRIPOS>BOND
     1    34    95    1
     2    56    95    1
     3    33    94    1
     4    95    94    1
     5    95    41    1
     6    94    55    1
     7    94    93    1
     8    54    93    1
     9    31    92    1
    10    93    92    1
    11    93    32    1
    12    92    53    1
    13    92    90    1
    14    52    90    1
    15    57    88    1
    16    90    30    1
    17    90    79    1
    18    25    79    1
    19    50    88    1
    20    60    59    2
    21    88    28    1
    22    88    87    1
    23    79    48    1
    24    79    61    1
    25    59    61    1
    26    59    91    1
    27    13    63    1
    28    27    87    1
    29    15    65    1
    30    87    91    1
    31    87    86    1
    32    61    11    1
    33    61    62    1
    34    42    63    1
    35    63    62    1
    36    63    64    1
    37    37    98    1
    38    43    65    1
    39    65    64    1
    40    65    66    1
    41    62    12    1
    42    62    96    1
    43    49    86    1
    44    16    66    1
    45    86    26    1
    46    86    85    1
    47    64    14    1
    48    64    97    1
    49    98    66    1
    50    66    67    1
    51    35    96    1
    52    85     2    1
    53    85    84    2
    54    97    36    1
    55     1    84    1
    56    38    99    1
    57    84    83    1
    58    67    17    1
    59    67    44    1
    60    67    68    1
    61    18    68    1
    62    68    99    1
    63    68    69    1
    64    83     4    1
    65    83    82    2
    66     3    82    1
    67    82    81    1
    68    19    69    1
    69    69    45    1
    70    69    70    1
    71    39   100    1
    72    20    70    1
    73    81     5    1
    74    81    80    2
    75     6    80    1
    76    70   100    1
    77    70    71    1
    78    80    78    1
    79    40   101    1
    80   101    72    1
    81    22    72    1
    82    78     7    1
    83    78    77    2
    84     8    77    1
    85    72    71    1
    86    72    73    1
    87    71    46    1
    88    71    21    1
    89    77    76    1
    90    58    89    1
    91    76     9    1
    92    76    75    2
    93    29    89    1
    94    47    73    1
    95    73    23    1
    96    73    74    1
    97    89    75    1
    98    89    51    1
    99    75    74    1
   100    74    24    1
   101    74   102    1
   102   102    10    1
