@<TRIPOS>MOLECULE
36.96080
 102 102 0 0 0
SMALL
GASTEIGER

@<TRIPOS>ATOM
      1 H           3.5750   48.8210   17.4630 H       1  UNL1        0.0614
      2 H           6.3130   50.2130   17.4890 H       1  UNL1        0.0573
      3 H           1.8350   50.2560   16.6470 H       1  UNL1        0.0618
      4 H           4.6390   51.4190   16.1340 H       1  UNL1        0.0617
      5 H           2.8160   52.7670   15.0910 H       1  UNL1        0.0618
      6 H           0.0580   51.7810   16.0390 H       1  UNL1        0.0618
      7 H           0.9670   54.2280   14.3440 H       1  UNL1        0.0618
      8 H          -1.7240   53.3260   15.5170 H       1  UNL1        0.0618
      9 H          -0.8310   55.7030   13.7310 H       1  UNL1        0.0618
     10 H          -4.4480   57.4780   12.4510 H       1  UNL1        0.2102
     11 H           2.4450   48.4530   21.5360 H       1  UNL1        0.0439
     12 H           2.0770   49.5500   19.2640 H       1  UNL1        0.0602
     13 H           1.1880   50.5720   21.3800 H       1  UNL1        0.0315
     14 H           0.9290   51.6570   19.0610 H       1  UNL1        0.0595
     15 H           0.2960   52.9100   21.1040 H       1  UNL1        0.0315
     16 H          -0.2770   53.8440   18.7590 H       1  UNL1        0.0595
     17 H          -0.4770   55.2980   20.7760 H       1  UNL1        0.0315
     18 H          -3.0260   55.5500   19.0690 H       1  UNL1        0.0595
     19 H          -0.8710   55.7500   17.7160 H       1  UNL1        0.0315
     20 H          -2.9690   57.1040   17.2240 H       1  UNL1        0.0595
     21 H          -0.7580   57.1690   15.7990 H       1  UNL1        0.0315
     22 H          -2.3190   59.7850   15.7870 H       1  UNL1        0.0595
     23 H          -3.7930   58.9900   14.0940 H       1  UNL1        0.0318
     24 H          -2.3800   57.2120   13.0290 H       1  UNL1        0.0641
     25 H           0.3790   46.3970   20.5900 H       1  UNL1        0.0274
     26 H           6.5050   48.8180   19.5040 H       1  UNL1        0.0343
     27 H           4.6690   46.7750   18.1490 H       1  UNL1        0.0734
     28 H           6.2530   46.6030   20.7800 H       1  UNL1        0.0265
     29 H          -3.5230   54.3250   16.0410 H       1  UNL1        0.0275
     30 H           1.9150   46.6710   23.2230 H       1  UNL1        0.0265
     31 H           0.0710   44.4930   22.1010 H       1  UNL1        0.0265
     32 H           1.6140   44.6250   24.7460 H       1  UNL1        0.0265
     33 H          -0.2300   42.4740   23.5660 H       1  UNL1        0.0263
     34 H           0.1650   41.2890   25.7000 H       1  UNL1        0.0230
     35 H          -0.2770   47.9580   19.2840 H       1  UNL1        0.2098
     36 H          -0.5660   50.0120   18.3660 H       1  UNL1        0.2098
     37 H          -2.0100   52.2330   18.5730 H       1  UNL1        0.2098
     38 H          -3.0630   56.6330   21.0500 H       1  UNL1        0.2098
     39 H          -2.5120   58.4100   19.2100 H       1  UNL1        0.2098
     40 H          -1.4890   60.0300   13.8430 H       1  UNL1        0.2098
     41 H           1.3070   42.5410   26.2170 H       1  UNL1        0.0230
     42 H          -0.3580   49.7460   21.0800 H       1  UNL1        0.0315
     43 H          -1.3090   52.1500   21.0850 H       1  UNL1        0.0315
     44 H          -2.0370   54.6020   21.1520 H       1  UNL1        0.0315
     45 H          -0.3680   57.0550   18.8140 H       1  UNL1        0.0315
     46 H          -0.3850   58.6380   16.6340 H       1  UNL1        0.0315
     47 H          -4.0390   58.0090   15.5010 H       1  UNL1        0.0318
     48 H           0.0690   47.5810   21.8590 H       1  UNL1        0.0274
     49 H           6.9440   47.8660   18.0830 H       1  UNL1        0.0343
     50 H           6.6380   45.7040   19.2920 H       1  UNL1        0.0265
     51 H          -4.5970   54.5460   14.6510 H       1  UNL1        0.0275
     52 H           2.3560   45.5420   21.9430 H       1  UNL1        0.0265
     53 H          -0.3080   45.5700   23.4480 H       1  UNL1        0.0265
     54 H           2.0220   43.5750   23.3880 H       1  UNL1        0.0265
     55 H          -0.6200   43.5090   24.9410 H       1  UNL1        0.0263
     56 H           1.6940   41.5010   24.8320 H       1  UNL1        0.0230
     57 H           5.1360   45.3860   20.1830 H       1  UNL1        0.0265
     58 H          -4.4350   55.8060   15.8830 H       1  UNL1        0.0275
     59 C           2.8820   47.1970   19.8780 C.2     1  UNL1        0.3130
     60 O           2.6340   46.1590   19.2800 O.2     1  UNL1       -0.2504
     61 C           1.8820   47.9730   20.7240 C.3     1  UNL1        0.0823
     62 C           1.2690   49.0660   19.8230 C.3     1  UNL1        0.0705
     63 C           0.5310   50.1720   20.6000 C.3     1  UNL1        0.0001
     64 C           0.0810   51.3130   19.6640 C.3     1  UNL1        0.0600
     65 C          -0.4860   52.5050   20.4510 C.3     1  UNL1       -0.0006
     66 C          -1.0250   53.6110   19.5250 C.3     1  UNL1        0.0599
     67 C          -1.3790   54.8750   20.3150 C.3     1  UNL1       -0.0006
     68 C          -2.0990   55.9540   19.4920 C.3     1  UNL1        0.0599
     69 C          -1.2350   56.5500   18.3690 C.3     1  UNL1       -0.0006
     70 C          -2.0260   57.5650   17.5250 C.3     1  UNL1        0.0599
     71 C          -1.2290   58.0170   16.3010 C.3     1  UNL1       -0.0006
     72 C          -2.0370   58.8450   15.2960 C.3     1  UNL1        0.0602
     73 C          -3.3100   58.2160   14.7090 C.3     1  UNL1        0.0032
     74 C          -3.1270   56.9850   13.7990 C.3     1  UNL1        0.0786
     75 C          -2.7810   55.6820   14.4980 C.2     1  UNL1       -0.0445
     76 C          -1.5470   55.1580   14.3490 C.2     1  UNL1       -0.0604
     77 C          -1.0340   53.9520   14.9580 C.2     1  UNL1       -0.0617
     78 C           0.2600   53.6030   14.8860 C.2     1  UNL1       -0.0618
     79 C           0.8610   47.0090   21.3620 C.3     1  UNL1       -0.0377
     80 C           0.7810   52.4230   15.5370 C.2     1  UNL1       -0.0618
     81 C           2.0860   52.1180   15.5710 C.2     1  UNL1       -0.0618
     82 C           2.5820   50.9510   16.2640 C.2     1  UNL1       -0.0618
     83 C           3.8840   50.7190   16.4860 C.2     1  UNL1       -0.0621
     84 C           4.3290   49.5740   17.2470 C.2     1  UNL1       -0.0656
     85 C           5.5780   49.4410   17.7180 C.2     1  UNL1       -0.0805
     86 C           6.1000   48.3340   18.6050 C.3     1  UNL1        0.0026
     87 C           5.1090   47.2350   19.0420 C.3     1  UNL1        0.1037
     88 C           5.8310   46.1700   19.8660 C.3     1  UNL1       -0.0274
     89 C          -3.8860   55.0530   15.3110 C.3     1  UNL1       -0.0411
     90 C           1.5120   46.0760   22.3950 C.3     1  UNL1       -0.0522
     91 O           4.0880   47.8330   19.8720 O.3     1  UNL1       -0.4611
     92 C           0.5120   45.0520   22.9360 C.3     1  UNL1       -0.0530
     93 C           1.1890   44.0730   23.8990 C.3     1  UNL1       -0.0533
     94 C           0.2050   43.0210   24.4110 C.3     1  UNL1       -0.0559
     95 C           0.8850   42.0320   25.3440 C.3     1  UNL1       -0.0653
     96 O           0.3790   48.5280   18.8400 O.3     1  UNL1       -0.3909
     97 O          -0.9240   50.8370   18.7620 O.3     1  UNL1       -0.3916
     98 O          -2.2040   53.1530   18.8640 O.3     1  UNL1       -0.3916
     99 O          -2.4770   57.0220   20.3750 O.3     1  UNL1       -0.3916
    100 O          -2.3480   58.7250   18.2940 O.3     1  UNL1       -0.3916
    101 O          -1.1630   59.1920   14.2140 O.3     1  UNL1       -0.3916
    102 O          -4.3580   56.7600   13.0990 O.3     1  UNL1       -0.3874
@<TRIPOS>BOND
     1    10   102    1
     2    24    74    1
     3   102    74    1
     4     9    76    1
     5    74    75    1
     6    74    73    1
     7    40   101    1
     8    23    73    1
     9   101    72    1
    10     7    78    1
    11    76    75    2
    12    76    77    1
    13    75    89    1
    14    51    89    1
    15    73    72    1
    16    73    47    1
    17    78    77    2
    18    78    80    1
    19    77     8    1
    20     5    81    1
    21    72    22    1
    22    72    71    1
    23    89    58    1
    24    89    29    1
    25    80    81    2
    26    80     6    1
    27    81    82    1
    28    21    71    1
    29     4    83    1
    30    82    83    2
    31    82     3    1
    32    71    46    1
    33    71    70    1
    34    83    84    1
    35    20    70    1
    36    84     1    1
    37    84    85    2
    38     2    85    1
    39    70   100    1
    40    70    69    1
    41    19    69    1
    42    85    86    1
    43    49    86    1
    44    27    87    1
    45   100    39    1
    46    36    97    1
    47    69    45    1
    48    69    68    1
    49    37    98    1
    50    86    87    1
    51    86    26    1
    52    16    66    1
    53    97    64    1
    54    96    35    1
    55    96    62    1
    56    98    66    1
    57    87    88    1
    58    87    91    1
    59    14    64    1
    60    18    68    1
    61    12    62    1
    62    60    59    2
    63    50    88    1
    64    68    67    1
    65    68    99    1
    66    66    67    1
    67    66    65    1
    68    64    65    1
    69    64    63    1
    70    62    63    1
    71    62    61    1
    72    88    57    1
    73    88    28    1
    74    91    59    1
    75    59    61    1
    76    67    17    1
    77    67    44    1
    78    99    38    1
    79    65    43    1
    80    65    15    1
    81    25    79    1
    82    63    42    1
    83    63    13    1
    84    61    79    1
    85    61    11    1
    86    79    48    1
    87    79    90    1
    88    52    90    1
    89    31    92    1
    90    90    92    1
    91    90    30    1
    92    92    53    1
    93    92    93    1
    94    54    93    1
    95    33    94    1
    96    93    94    1
    97    93    32    1
    98    94    55    1
    99    94    95    1
   100    56    95    1
   101    95    34    1
   102    95    41    1
