@<TRIPOS>MOLECULE
44.65157
 102 102 0 0 0
SMALL
GASTEIGER

@<TRIPOS>ATOM
      1 H          -1.5530   41.9980   18.8290 H       1  UNL1        0.0614
      2 H           1.1570   40.5490   18.7270 H       1  UNL1        0.0573
      3 H          -3.4470   40.4890   18.6050 H       1  UNL1        0.0618
      4 H          -0.7550   39.0080   18.4500 H       1  UNL1        0.0617
      5 H          -2.6850   37.4960   18.1970 H       1  UNL1        0.0618
      6 H          -5.3610   39.0040   18.3690 H       1  UNL1        0.0618
      7 H          -4.6230   36.0050   17.9690 H       1  UNL1        0.0618
      8 H          -7.2790   37.5220   18.2160 H       1  UNL1        0.0618
      9 H          -6.5150   34.5360   17.8280 H       1  UNL1        0.0618
     10 H          -9.1100   32.2440   16.6490 H       1  UNL1        0.2102
     11 H           1.5120   41.6900   24.2910 H       1  UNL1        0.0439
     12 H           1.5200   40.4100   21.5250 H       1  UNL1        0.0602
     13 H          -0.7590   40.8490   22.5510 H       1  UNL1        0.0315
     14 H          -0.3730   38.7400   21.1960 H       1  UNL1        0.0595
     15 H          -2.6320   39.2500   22.1410 H       1  UNL1        0.0315
     16 H          -2.2710   37.0100   20.9550 H       1  UNL1        0.0595
     17 H          -4.5510   37.7230   21.7330 H       1  UNL1        0.0315
     18 H          -4.2240   35.4100   20.6880 H       1  UNL1        0.0595
     19 H          -6.5100   36.3020   21.2940 H       1  UNL1        0.0315
     20 H          -6.1740   33.9620   20.2950 H       1  UNL1        0.0595
     21 H          -8.5000   35.0500   20.7570 H       1  UNL1        0.0315
     22 H          -8.4410   32.0110   21.1340 H       1  UNL1        0.0595
     23 H          -8.7250   31.6380   18.8430 H       1  UNL1        0.0318
     24 H         -10.0780   33.5500   18.1240 H       1  UNL1        0.0641
     25 H           3.6900   42.1400   22.2010 H       1  UNL1        0.0274
     26 H           0.2770   43.5150   18.8490 H       1  UNL1        0.0343
     27 H           2.4460   42.1190   20.5030 H       1  UNL1        0.0734
     28 H           1.7680   45.1100   20.2390 H       1  UNL1        0.0265
     29 H         -10.3450   35.9400   17.3990 H       1  UNL1        0.0275
     30 H           3.3730   43.0770   25.0990 H       1  UNL1        0.0265
     31 H           5.5920   43.5510   23.0380 H       1  UNL1        0.0265
     32 H           5.2800   44.5050   25.9350 H       1  UNL1        0.0265
     33 H           7.5190   44.9600   23.8880 H       1  UNL1        0.0263
     34 H           8.6400   46.1660   25.7360 H       1  UNL1        0.0230
     35 H           2.1670   39.3860   24.0910 H       1  UNL1        0.2098
     36 H           1.1740   37.9060   22.7400 H       1  UNL1        0.2098
     37 H          -0.9030   36.3150   22.8240 H       1  UNL1        0.2098
     38 H          -3.0370   34.7440   22.6850 H       1  UNL1        0.2098
     39 H          -5.2690   33.2450   22.3940 H       1  UNL1        0.2098
     40 H         -10.3850   32.9770   21.6020 H       1  UNL1        0.2098
     41 H           7.2260   45.9360   26.7790 H       1  UNL1        0.0230
     42 H          -0.2200   39.9740   23.9960 H       1  UNL1        0.0315
     43 H          -2.1730   38.4460   23.6550 H       1  UNL1        0.0315
     44 H          -4.2270   36.9800   23.3130 H       1  UNL1        0.0315
     45 H          -6.3460   35.5490   22.8950 H       1  UNL1        0.0315
     46 H          -8.5180   34.1820   22.2600 H       1  UNL1        0.0315
     47 H          -7.2790   32.5820   18.9680 H       1  UNL1        0.0318
     48 H           3.8350   41.1300   23.6230 H       1  UNL1        0.0274
     49 H           1.7830   42.8960   18.1690 H       1  UNL1        0.0343
     50 H           3.2280   44.3340   19.5800 H       1  UNL1        0.0265
     51 H          -9.3300   37.0680   18.2920 H       1  UNL1        0.0275
     52 H           3.2430   44.1280   23.6880 H       1  UNL1        0.0265
     53 H           5.7280   42.5200   24.4650 H       1  UNL1        0.0265
     54 H           5.1530   45.5320   24.5050 H       1  UNL1        0.0265
     55 H           7.6440   43.9410   25.3240 H       1  UNL1        0.0263
     56 H           7.1070   46.9590   25.3340 H       1  UNL1        0.0230
     57 H           2.9690   44.4400   21.3290 H       1  UNL1        0.0265
     58 H         -10.2120   35.8190   19.1640 H       1  UNL1        0.0275
     59 C           0.9980   42.9290   22.6730 C.2     1  UNL1        0.3130
     60 O           0.5310   43.7860   23.4180 O.2     1  UNL1       -0.2504
     61 C           1.7950   41.7560   23.2290 C.3     1  UNL1        0.0823
     62 C           1.3710   40.4070   22.6070 C.3     1  UNL1        0.0705
     63 C          -0.0990   40.0510   22.9070 C.3     1  UNL1        0.0001
     64 C          -0.5390   38.7170   22.2780 C.3     1  UNL1        0.0600
     65 C          -2.0250   38.4430   22.5670 C.3     1  UNL1       -0.0006
     66 C          -2.5040   37.0870   22.0230 C.3     1  UNL1        0.0599
     67 C          -4.0160   36.9100   22.2380 C.3     1  UNL1       -0.0006
     68 C          -4.5300   35.5530   21.7310 C.3     1  UNL1        0.0599
     69 C          -6.0600   35.4640   21.8380 C.3     1  UNL1       -0.0006
     70 C          -6.5990   34.1330   21.2870 C.3     1  UNL1        0.0599
     71 C          -8.1290   34.1390   21.2330 C.3     1  UNL1       -0.0006
     72 C          -8.7380   32.9000   20.5620 C.3     1  UNL1        0.0602
     73 C          -8.3660   32.6470   19.0940 C.3     1  UNL1        0.0032
     74 C          -8.9850   33.5940   18.0470 C.3     1  UNL1        0.0786
     75 C          -8.5250   35.0410   18.0870 C.2     1  UNL1       -0.0445
     76 C          -7.2180   35.3550   17.9860 C.2     1  UNL1       -0.0604
     77 C          -6.6210   36.6670   18.0930 C.2     1  UNL1       -0.0617
     78 C          -5.2920   36.8550   18.0870 C.2     1  UNL1       -0.0618
     79 C           3.3160   42.0080   23.2190 C.3     1  UNL1       -0.0377
     80 C          -4.6870   38.1560   18.2620 C.2     1  UNL1       -0.0618
     81 C          -3.3600   38.3430   18.3070 C.2     1  UNL1       -0.0618
     82 C          -2.7650   39.6460   18.5040 C.2     1  UNL1       -0.0618
     83 C          -1.4400   39.8460   18.5580 C.2     1  UNL1       -0.0621
     84 C          -0.8650   41.1570   18.7470 C.2     1  UNL1       -0.0656
     85 C           0.4570   41.3770   18.8150 C.2     1  UNL1       -0.0805
     86 C           1.0560   42.7510   18.9770 C.3     1  UNL1        0.0026
     87 C           1.7410   42.9380   20.3420 C.3     1  UNL1        0.1037
     88 C           2.4710   44.2800   20.3690 C.3     1  UNL1       -0.0274
     89 C          -9.6540   36.0260   18.2450 C.3     1  UNL1       -0.0411
     90 C           3.7220   43.2200   24.0690 C.3     1  UNL1       -0.0522
     91 O           0.7060   42.9350   21.3530 O.3     1  UNL1       -0.4611
     92 C           5.2390   43.4180   24.0680 C.3     1  UNL1       -0.0530
     93 C           5.6390   44.6340   24.9060 C.3     1  UNL1       -0.0533
     94 C           7.1540   44.8320   24.9140 C.3     1  UNL1       -0.0559
     95 C           7.5520   46.0450   25.7400 C.3     1  UNL1       -0.0653
     96 O           2.2000   39.3490   23.1150 O.3     1  UNL1       -0.3909
     97 O           0.2320   37.6350   22.8070 O.3     1  UNL1       -0.3916
     98 O          -1.8320   36.0130   22.6880 O.3     1  UNL1       -0.3916
     99 O          -3.9680   34.4810   22.4940 O.3     1  UNL1       -0.3916
    100 O          -6.1940   33.0480   22.1200 O.3     1  UNL1       -0.3916
    101 O         -10.1650   32.9830   20.6540 O.3     1  UNL1       -0.3916
    102 O          -8.6570   33.0990   16.7430 O.3     1  UNL1       -0.3874
@<TRIPOS>BOND
     1    10   102    1
     2   102    74    1
     3    29    89    1
     4     9    76    1
     5     7    78    1
     6    76    75    2
     7    76    77    1
     8    74    75    1
     9    74    24    1
    10    74    73    1
    11    75    89    1
    12    78    77    2
    13    78    80    1
    14    77     8    1
    15    49    86    1
    16     5    81    1
    17    89    51    1
    18    89    58    1
    19    80    81    2
    20    80     6    1
    21    81    82    1
    22     4    83    1
    23    82    83    2
    24    82     3    1
    25    83    84    1
    26     2    85    1
    27    84    85    2
    28    84     1    1
    29    85    86    1
    30    23    73    1
    31    26    86    1
    32    47    73    1
    33    86    87    1
    34    73    72    1
    35    50    88    1
    36    28    88    1
    37    20    70    1
    38    87    88    1
    39    87    27    1
    40    87    91    1
    41    88    57    1
    42    72   101    1
    43    72    22    1
    44    72    71    1
    45   101    40    1
    46    18    68    1
    47    21    71    1
    48    16    66    1
    49    14    64    1
    50    71    70    1
    51    71    46    1
    52    70    69    1
    53    70   100    1
    54    19    69    1
    55    91    59    1
    56    12    62    1
    57    68    69    1
    58    68    67    1
    59    68    99    1
    60    17    67    1
    61    69    45    1
    62    66    67    1
    63    66    65    1
    64    66    98    1
    65   100    39    1
    66    15    65    1
    67    25    79    1
    68    67    44    1
    69    64    65    1
    70    64    97    1
    71    64    63    1
    72    99    38    1
    73    13    63    1
    74    65    43    1
    75    62    63    1
    76    62    96    1
    77    62    61    1
    78    59    61    1
    79    59    60    2
    80    98    37    1
    81    36    97    1
    82    63    42    1
    83    31    92    1
    84    96    35    1
    85    79    61    1
    86    79    48    1
    87    79    90    1
    88    61    11    1
    89    52    90    1
    90    33    94    1
    91    92    90    1
    92    92    53    1
    93    92    93    1
    94    90    30    1
    95    54    93    1
    96    93    94    1
    97    93    32    1
    98    94    55    1
    99    94    95    1
   100    56    95    1
   101    34    95    1
   102    95    41    1
