@<TRIPOS>MOLECULE
40.39080
 102 102 0 0 0
SMALL
GASTEIGER

@<TRIPOS>ATOM
      1 H          -2.6850   42.4210   21.7850 H       1  UNL1        0.0614
      2 H          -0.9620   44.9420   22.1060 H       1  UNL1        0.0573
      3 H          -4.3480   42.1980   23.4880 H       1  UNL1        0.0618
      4 H          -2.9390   44.9300   23.6010 H       1  UNL1        0.0617
      5 H          -4.7000   44.6840   25.3280 H       1  UNL1        0.0618
      6 H          -5.8720   41.8380   25.3440 H       1  UNL1        0.0618
      7 H          -6.2320   44.3080   27.2040 H       1  UNL1        0.0618
      8 H          -7.2110   41.4000   27.3320 H       1  UNL1        0.0618
      9 H          -7.5650   43.8990   29.1340 H       1  UNL1        0.0618
     10 H         -10.3620   42.7880   32.1590 H       1  UNL1        0.2102
     11 H           2.5200   40.9690   23.4870 H       1  UNL1        0.0439
     12 H           0.3670   40.7140   25.6440 H       1  UNL1        0.0602
     13 H           1.1310   43.0830   24.8620 H       1  UNL1        0.0315
     14 H           1.7550   42.2040   27.7420 H       1  UNL1        0.0595
     15 H          -0.6710   42.0370   27.0580 H       1  UNL1        0.0315
     16 H          -0.0560   42.8920   29.3890 H       1  UNL1        0.0595
     17 H          -2.4280   42.4330   28.7130 H       1  UNL1        0.0315
     18 H          -1.9310   43.4400   31.0200 H       1  UNL1        0.0595
     19 H          -4.2130   42.6860   30.3520 H       1  UNL1        0.0315
     20 H          -3.8760   43.8410   32.6360 H       1  UNL1        0.0595
     21 H          -6.5590   44.4540   31.2940 H       1  UNL1        0.0315
     22 H          -5.9590   41.9280   31.3200 H       1  UNL1        0.0595
     23 H          -8.1900   42.7450   33.2600 H       1  UNL1        0.0318
     24 H          -8.7060   43.7520   31.0870 H       1  UNL1        0.0641
     25 H           2.4330   38.5920   24.0510 H       1  UNL1        0.0274
     26 H           0.6360   43.8940   20.7840 H       1  UNL1        0.0343
     27 H          -0.9870   41.2850   20.9260 H       1  UNL1        0.0734
     28 H           1.4780   41.8740   19.2240 H       1  UNL1        0.0265
     29 H          -8.1470   40.1550   28.7410 H       1  UNL1        0.0275
     30 H          -0.5990   38.8420   23.6780 H       1  UNL1        0.0265
     31 H           1.0120   36.2860   24.0580 H       1  UNL1        0.0265
     32 H          -1.9220   36.8970   23.3890 H       1  UNL1        0.0265
     33 H          -0.5460   34.2000   23.8420 H       1  UNL1        0.0263
     34 H          -2.7410   33.2740   23.1690 H       1  UNL1        0.0230
     35 H           3.1750   40.2820   25.7780 H       1  UNL1        0.2098
     36 H           2.8760   44.0750   27.1580 H       1  UNL1        0.2098
     37 H           0.7390   44.9350   28.3340 H       1  UNL1        0.2098
     38 H          -1.3420   45.5040   29.9180 H       1  UNL1        0.2098
     39 H          -3.4870   45.8960   31.4640 H       1  UNL1        0.2098
     40 H          -5.8660   40.9990   33.3880 H       1  UNL1        0.2098
     41 H          -3.4120   34.9050   23.0080 H       1  UNL1        0.0230
     42 H           2.7380   42.6390   25.4010 H       1  UNL1        0.0315
     43 H          -0.6000   43.7170   26.4930 H       1  UNL1        0.0315
     44 H          -2.5580   44.0910   28.0940 H       1  UNL1        0.0315
     45 H          -4.5490   44.2920   29.6800 H       1  UNL1        0.0315
     46 H          -6.2640   44.4720   33.0160 H       1  UNL1        0.0315
     47 H          -8.0030   41.1710   32.5790 H       1  UNL1        0.0318
     48 H           1.6750   38.8810   22.4930 H       1  UNL1        0.0274
     49 H          -0.7270   43.6440   19.6950 H       1  UNL1        0.0343
     50 H          -0.1540   41.5190   18.6060 H       1  UNL1        0.0265
     51 H          -9.5450   40.3250   29.7870 H       1  UNL1        0.0275
     52 H           0.2360   38.3450   25.1450 H       1  UNL1        0.0265
     53 H           0.4190   36.8370   22.4870 H       1  UNL1        0.0265
     54 H          -1.3370   36.2890   24.9380 H       1  UNL1        0.0265
     55 H          -1.0330   34.8210   22.2620 H       1  UNL1        0.0263
     56 H          -2.9380   34.2950   24.6050 H       1  UNL1        0.0230
     57 H           0.7630   40.2930   19.5070 H       1  UNL1        0.0265
     58 H          -7.9390   40.0190   30.4800 H       1  UNL1        0.0275
     59 C           0.4490   41.1920   22.9980 C.2     1  UNL1        0.3130
     60 O          -0.7150   41.2670   23.3650 O.2     1  UNL1       -0.2504
     61 C           1.5560   40.5720   23.8330 C.3     1  UNL1        0.0823
     62 C           1.3820   40.9580   25.3140 C.3     1  UNL1        0.0705
     63 C           1.6700   42.4460   25.5730 C.3     1  UNL1        0.0001
     64 C           1.3230   42.8900   27.0050 C.3     1  UNL1        0.0600
     65 C          -0.1940   43.0080   27.2260 C.3     1  UNL1       -0.0006
     66 C          -0.5560   43.5100   28.6340 C.3     1  UNL1        0.0599
     67 C          -2.0750   43.4610   28.8530 C.3     1  UNL1       -0.0006
     68 C          -2.4940   43.9690   30.2430 C.3     1  UNL1        0.0599
     69 C          -4.0010   43.7530   30.4640 C.3     1  UNL1       -0.0006
     70 C          -4.4890   44.2630   31.8320 C.3     1  UNL1        0.0599
     71 C          -5.9750   43.9680   32.0830 C.3     1  UNL1       -0.0006
     72 C          -6.3240   42.4800   32.1900 C.3     1  UNL1        0.0602
     73 C          -7.8310   42.2330   32.3560 C.3     1  UNL1        0.0032
     74 C          -8.6960   42.6580   31.1580 C.3     1  UNL1        0.0786
     75 C          -8.2550   42.0470   29.8370 C.2     1  UNL1       -0.0445
     76 C          -7.6690   42.8360   28.9120 C.2     1  UNL1       -0.0604
     77 C          -7.0930   42.4320   27.6490 C.2     1  UNL1       -0.0617
     78 C          -6.3760   43.2750   26.8890 C.2     1  UNL1       -0.0618
     79 C           1.5570   39.0480   23.5720 C.3     1  UNL1       -0.0377
     80 C          -5.7130   42.8630   25.6720 C.2     1  UNL1       -0.0618
     81 C          -4.8820   43.6660   24.9900 C.2     1  UNL1       -0.0618
     82 C          -4.1430   43.2100   23.8340 C.2     1  UNL1       -0.0618
     83 C          -3.1830   43.9350   23.2400 C.2     1  UNL1       -0.0621
     84 C          -2.3790   43.3910   22.1690 C.2     1  UNL1       -0.0656
     85 C          -1.2600   43.9730   21.7090 C.2     1  UNL1       -0.0805
     86 C          -0.3270   43.3780   20.6820 C.3     1  UNL1        0.0026
     87 C          -0.0680   41.8570   20.7570 C.3     1  UNL1        0.1037
     88 C           0.5340   41.3620   19.4420 C.3     1  UNL1       -0.0274
     89 C          -8.4790   40.5620   29.6990 C.3     1  UNL1       -0.0411
     90 C           0.2900   38.3260   24.0510 C.3     1  UNL1       -0.0522
     91 O           0.9170   41.5440   21.7710 O.3     1  UNL1       -0.4611
     92 C           0.2290   36.8760   23.5670 C.3     1  UNL1       -0.0530
     93 C          -1.1490   36.2750   23.8580 C.3     1  UNL1       -0.0533
     94 C          -1.2690   34.8470   23.3320 C.3     1  UNL1       -0.0559
     95 C          -2.6730   34.3000   23.5430 C.3     1  UNL1       -0.0653
     96 O           2.2740   40.1930   26.1330 O.3     1  UNL1       -0.3909
     97 O           1.9090   44.1790   27.2360 O.3     1  UNL1       -0.3916
     98 O          -0.1160   44.8590   28.8180 O.3     1  UNL1       -0.3916
     99 O          -2.2060   45.3640   30.3720 O.3     1  UNL1       -0.3916
    100 O          -4.3500   45.6880   31.8860 O.3     1  UNL1       -0.3916
    101 O          -5.6450   41.9450   33.3290 O.3     1  UNL1       -0.3916
    102 O         -10.0460   42.2660   31.4020 O.3     1  UNL1       -0.3874
@<TRIPOS>BOND
     1    50    88    1
     2    28    88    1
     3    88    57    1
     4    88    87    1
     5    49    86    1
     6    86    87    1
     7    86    26    1
     8    86    85    1
     9    87    27    1
    10    87    91    1
    11    85     2    1
    12    85    84    2
    13    91    59    1
    14     1    84    1
    15    84    83    1
    16    55    94    1
    17    53    92    1
    18    48    79    1
    19    59    60    2
    20    59    61    1
    21    41    95    1
    22    34    95    1
    23    83     4    1
    24    83    82    2
    25    94    95    1
    26    94    33    1
    27    94    93    1
    28    32    93    1
    29    11    61    1
    30     3    82    1
    31    95    56    1
    32    92    93    1
    33    92    90    1
    34    92    31    1
    35    79    61    1
    36    79    90    1
    37    79    25    1
    38    30    90    1
    39    61    62    1
    40    82    81    1
    41    93    54    1
    42    90    52    1
    43    13    63    1
    44    81     5    1
    45    81    80    2
    46    62    63    1
    47    62    12    1
    48    62    96    1
    49     6    80    1
    50    42    63    1
    51    63    64    1
    52    80    78    1
    53    35    96    1
    54    43    65    1
    55    78     7    1
    56    78    77    2
    57    64    65    1
    58    64    97    1
    59    64    14    1
    60    15    65    1
    61    36    97    1
    62    65    66    1
    63     8    77    1
    64    77    76    1
    65    44    67    1
    66    37    98    1
    67    66    98    1
    68    66    67    1
    69    66    16    1
    70    17    67    1
    71    29    89    1
    72    67    68    1
    73    76     9    1
    74    76    75    2
    75    45    69    1
    76    89    51    1
    77    89    75    1
    78    89    58    1
    79    75    74    1
    80    38    99    1
    81    68    99    1
    82    68    69    1
    83    68    18    1
    84    19    69    1
    85    69    70    1
    86    24    74    1
    87    74   102    1
    88    74    73    1
    89    21    71    1
    90    22    72    1
    91   102    10    1
    92    39   100    1
    93    70   100    1
    94    70    71    1
    95    70    20    1
    96    71    72    1
    97    71    46    1
    98    72    73    1
    99    72   101    1
   100    73    47    1
   101    73    23    1
   102   101    40    1
