@<TRIPOS>MOLECULE
37.11817
 102 102 0 0 0
SMALL
GASTEIGER

@<TRIPOS>ATOM
      1 H           4.1530   45.6810   21.3420 H       1  UNL1        0.0614
      2 H           1.0940   45.4930   21.1050 H       1  UNL1        0.0573
      3 H           4.8560   47.5090   22.7930 H       1  UNL1        0.0618
      4 H           1.7970   47.2070   22.7000 H       1  UNL1        0.0617
      5 H           2.5300   49.0130   24.2240 H       1  UNL1        0.0618
      6 H           5.5950   49.2530   24.2860 H       1  UNL1        0.0618
      7 H           3.3320   50.8070   25.7630 H       1  UNL1        0.0618
      8 H           6.4020   50.7990   25.9140 H       1  UNL1        0.0618
      9 H           6.1120   52.7940   27.1930 H       1  UNL1        0.0618
     10 H           3.7120   54.4870   30.2180 H       1  UNL1        0.2102
     11 H           2.7190   40.9800   23.3140 H       1  UNL1        0.0439
     12 H           0.9700   42.6840   25.1700 H       1  UNL1        0.0602
     13 H           3.0340   43.8100   24.1760 H       1  UNL1        0.0315
     14 H           2.2400   44.4190   26.4900 H       1  UNL1        0.0595
     15 H           4.3090   45.5130   25.5460 H       1  UNL1        0.0315
     16 H           3.4820   46.0900   27.8870 H       1  UNL1        0.0595
     17 H           5.4770   47.2730   26.8470 H       1  UNL1        0.0315
     18 H           4.5560   47.8780   29.1450 H       1  UNL1        0.0595
     19 H           6.4850   49.1330   28.0080 H       1  UNL1        0.0315
     20 H           5.3210   49.8050   30.2110 H       1  UNL1        0.0595
     21 H           7.1840   51.1900   28.8980 H       1  UNL1        0.0315
     22 H           7.0000   51.7300   31.8840 H       1  UNL1        0.0595
     23 H           5.1970   53.2830   31.5400 H       1  UNL1        0.0318
     24 H           5.4640   53.8310   29.1110 H       1  UNL1        0.0641
     25 H          -0.2750   40.6540   23.9150 H       1  UNL1        0.0274
     26 H           3.4550   43.8540   19.9510 H       1  UNL1        0.0343
     27 H           0.4740   43.1520   20.2950 H       1  UNL1        0.0734
     28 H           2.7080   41.5670   18.9300 H       1  UNL1        0.0265
     29 H           3.5970   50.0830   28.1180 H       1  UNL1        0.0275
     30 H           1.6000   39.0880   22.0640 H       1  UNL1        0.0265
     31 H          -1.3340   38.6230   22.8220 H       1  UNL1        0.0265
     32 H           0.5140   37.1120   20.8980 H       1  UNL1        0.0265
     33 H          -2.4210   36.6550   21.6670 H       1  UNL1        0.0263
     34 H          -2.2560   34.6760   20.1930 H       1  UNL1        0.0230
     35 H           2.7870   40.5770   25.7650 H       1  UNL1        0.2098
     36 H           2.6200   42.2360   27.2960 H       1  UNL1        0.2098
     37 H           4.1600   43.8710   28.6060 H       1  UNL1        0.2098
     38 H           5.4460   45.7800   29.9860 H       1  UNL1        0.2098
     39 H           6.5000   48.0270   31.2990 H       1  UNL1        0.2098
     40 H           7.7210   53.6450   31.3580 H       1  UNL1        0.2098
     41 H          -0.6000   35.1140   19.7420 H       1  UNL1        0.0230
     42 H           4.0090   42.5040   24.8790 H       1  UNL1        0.0315
     43 H           5.2900   44.2230   26.2740 H       1  UNL1        0.0315
     44 H           6.5370   46.0930   27.6510 H       1  UNL1        0.0315
     45 H           7.6000   48.1800   29.0080 H       1  UNL1        0.0315
     46 H           8.2550   50.6470   30.1450 H       1  UNL1        0.0315
     47 H           4.6430   51.6860   31.1670 H       1  UNL1        0.0318
     48 H           0.9910   39.5580   24.4620 H       1  UNL1        0.0274
     49 H           2.1650   44.5190   18.9380 H       1  UNL1        0.0343
     50 H           1.3300   42.3360   18.1050 H       1  UNL1        0.0265
     51 H           2.4770   51.4630   28.2050 H       1  UNL1        0.0275
     52 H           0.2400   40.0920   21.5490 H       1  UNL1        0.0265
     53 H           0.0190   37.5980   23.3060 H       1  UNL1        0.0265
     54 H          -0.8350   38.1410   20.4120 H       1  UNL1        0.0265
     55 H          -1.0720   35.6230   22.1470 H       1  UNL1        0.0263
     56 H          -1.9560   36.1520   19.2600 H       1  UNL1        0.0230
     57 H           1.0760   40.9950   19.2440 H       1  UNL1        0.0265
     58 H           3.2690   50.8440   29.6540 H       1  UNL1        0.0275
     59 C           1.2970   42.3930   22.5300 C.2     1  UNL1        0.3130
     60 O           0.3890   43.1980   22.6760 O.2     1  UNL1       -0.2504
     61 C           1.7430   41.4010   23.5890 C.3     1  UNL1        0.0823
     62 C           1.8860   42.1250   24.9440 C.3     1  UNL1        0.0705
     63 C           3.0890   43.0900   25.0000 C.3     1  UNL1        0.0001
     64 C           3.1660   43.8510   26.3380 C.3     1  UNL1        0.0600
     65 C           4.3690   44.8090   26.3840 C.3     1  UNL1       -0.0006
     66 C           4.4390   45.5840   27.7130 C.3     1  UNL1        0.0599
     67 C           5.5750   46.6180   27.7200 C.3     1  UNL1       -0.0006
     68 C           5.5610   47.4610   29.0070 C.3     1  UNL1        0.0599
     69 C           6.5880   48.6000   28.9570 C.3     1  UNL1       -0.0006
     70 C           6.3840   49.5760   30.1280 C.3     1  UNL1        0.0599
     71 C           7.1960   50.8590   29.9380 C.3     1  UNL1       -0.0006
     72 C           6.7700   52.0160   30.8500 C.3     1  UNL1        0.0602
     73 C           5.3040   52.4780   30.7980 C.3     1  UNL1        0.0032
     74 C           4.7820   53.0460   29.4590 C.3     1  UNL1        0.0786
     75 C           4.5400   52.0280   28.3570 C.2     1  UNL1       -0.0445
     76 C           5.3220   52.0430   27.2570 C.2     1  UNL1       -0.0604
     77 C           5.3830   51.0770   26.1830 C.2     1  UNL1       -0.0617
     78 C           4.3540   50.5220   25.5280 C.2     1  UNL1       -0.0618
     79 C           0.7130   40.2510   23.6600 C.3     1  UNL1       -0.0377
     80 C           4.5620   49.4880   24.5390 C.2     1  UNL1       -0.0618
     81 C           3.5650   48.7940   23.9710 C.2     1  UNL1       -0.0618
     82 C           3.8160   47.7210   23.0350 C.2     1  UNL1       -0.0618
     83 C           2.8400   46.9960   22.4710 C.2     1  UNL1       -0.0621
     84 C           3.1110   45.9220   21.5430 C.2     1  UNL1       -0.0656
     85 C           2.1380   45.2410   20.9210 C.2     1  UNL1       -0.0805
     86 C           2.3930   44.1300   19.9380 C.3     1  UNL1        0.0026
     87 C           1.5340   42.8840   20.2040 C.3     1  UNL1        0.1037
     88 C           1.6690   41.8950   19.0480 C.3     1  UNL1       -0.0274
     89 C           3.4150   51.0510   28.5910 C.3     1  UNL1       -0.0411
     90 C           0.6070   39.4490   22.3570 C.3     1  UNL1       -0.0522
     91 O           2.0000   42.1910   21.3810 O.3     1  UNL1       -0.4611
     92 C          -0.3460   38.2620   22.5130 C.3     1  UNL1       -0.0530
     93 C          -0.4740   37.4770   21.2060 C.3     1  UNL1       -0.0533
     94 C          -1.4320   36.2950   21.3590 C.3     1  UNL1       -0.0559
     95 C          -1.5670   35.5160   20.0610 C.3     1  UNL1       -0.0653
     96 O           2.0440   41.1650   26.0010 O.3     1  UNL1       -0.3909
     97 O           3.2950   42.9380   27.4330 O.3     1  UNL1       -0.3916
     98 O           4.6610   44.6940   28.8130 O.3     1  UNL1       -0.3916
     99 O           5.8530   46.6620   30.1560 O.3     1  UNL1       -0.3916
    100 O           6.7740   48.9700   31.3590 O.3     1  UNL1       -0.3916
    101 O           7.6010   53.1410   30.5340 O.3     1  UNL1       -0.3916
    102 O           3.5240   53.6850   29.7020 O.3     1  UNL1       -0.3874
@<TRIPOS>BOND
     1    50    88    1
     2    28    88    1
     3    49    86    1
     4    88    57    1
     5    88    87    1
     6    56    95    1
     7    41    95    1
     8    86    26    1
     9    86    87    1
    10    86    85    1
    11    95    34    1
    12    95    94    1
    13    87    27    1
    14    87    91    1
    15    54    93    1
    16    32    93    1
    17    85     2    1
    18    85    84    2
    19    93    94    1
    20    93    92    1
    21     1    84    1
    22    94    33    1
    23    94    55    1
    24    91    59    1
    25    84    83    1
    26    52    90    1
    27    30    90    1
    28    90    92    1
    29    90    79    1
    30    83     4    1
    31    83    82    2
    32    92    31    1
    33    92    53    1
    34    59    60    2
    35    59    61    1
    36     3    82    1
    37    82    81    1
    38    11    61    1
    39    61    79    1
    40    61    62    1
    41    79    25    1
    42    79    48    1
    43    81     5    1
    44    81    80    2
    45    13    63    1
    46     6    80    1
    47    80    78    1
    48    42    63    1
    49    62    63    1
    50    62    12    1
    51    62    96    1
    52    63    64    1
    53    78     7    1
    54    78    77    2
    55    15    65    1
    56    35    96    1
    57     8    77    1
    58    77    76    1
    59    43    65    1
    60    64    65    1
    61    64    14    1
    62    64    97    1
    63    65    66    1
    64    17    67    1
    65     9    76    1
    66    76    75    2
    67    36    97    1
    68    44    67    1
    69    66    67    1
    70    66    16    1
    71    66    98    1
    72    67    68    1
    73    19    69    1
    74    29    89    1
    75    51    89    1
    76    75    89    1
    77    75    74    1
    78    89    58    1
    79    37    98    1
    80    21    71    1
    81    69    68    1
    82    69    45    1
    83    69    70    1
    84    68    18    1
    85    68    99    1
    86    24    74    1
    87    74   102    1
    88    74    73    1
    89   102    10    1
    90    71    70    1
    91    71    46    1
    92    71    72    1
    93    38    99    1
    94    70    20    1
    95    70   100    1
    96   101    72    1
    97   101    40    1
    98    73    72    1
    99    73    47    1
   100    73    23    1
   101    72    22    1
   102    39   100    1
