@<TRIPOS>MOLECULE
34.22933
 102 102 0 0 0
SMALL
GASTEIGER

@<TRIPOS>ATOM
      1 H          -2.4600   42.3360   23.7220 H       1  UNL1        0.0614
      2 H          -2.4870   45.1240   22.4260 H       1  UNL1        0.0573
      3 H          -2.9670   42.4680   26.1530 H       1  UNL1        0.0618
      4 H          -3.1790   45.1930   24.7410 H       1  UNL1        0.0617
      5 H          -3.6810   45.3490   27.1000 H       1  UNL1        0.0618
      6 H          -3.2290   42.7060   28.6090 H       1  UNL1        0.0618
      7 H          -3.9760   45.5990   29.4880 H       1  UNL1        0.0618
      8 H          -3.2340   43.0600   31.0440 H       1  UNL1        0.0618
      9 H          -4.0590   45.9450   31.8390 H       1  UNL1        0.0618
     10 H          -4.4900   45.9270   36.0720 H       1  UNL1        0.2102
     11 H           3.0040   41.0540   22.8100 H       1  UNL1        0.0439
     12 H           2.7960   41.8200   25.1860 H       1  UNL1        0.0602
     13 H           0.5010   42.8670   25.0730 H       1  UNL1        0.0315
     14 H           2.2360   43.5130   26.8660 H       1  UNL1        0.0595
     15 H          -0.1130   44.2620   26.9970 H       1  UNL1        0.0315
     16 H           1.7150   45.2760   28.5690 H       1  UNL1        0.0595
     17 H          -0.7050   45.4380   29.0300 H       1  UNL1        0.0315
     18 H           1.0930   46.8510   30.3520 H       1  UNL1        0.0595
     19 H          -1.1630   46.3020   31.1850 H       1  UNL1        0.0315
     20 H           0.4130   48.1740   32.3110 H       1  UNL1        0.0595
     21 H          -2.5840   47.9150   32.8750 H       1  UNL1        0.0315
     22 H          -0.9190   45.8740   33.2670 H       1  UNL1        0.0595
     23 H          -2.3680   47.0210   35.7140 H       1  UNL1        0.0318
     24 H          -4.0560   46.5910   34.0020 H       1  UNL1        0.0641
     25 H           0.1240   40.9260   23.8620 H       1  UNL1        0.0274
     26 H          -2.3510   43.8030   20.3830 H       1  UNL1        0.0343
     27 H          -0.0460   43.0690   20.0920 H       1  UNL1        0.0734
     28 H           0.0820   45.3560   22.1490 H       1  UNL1        0.0265
     29 H          -2.7610   42.5710   33.0330 H       1  UNL1        0.0275
     30 H           1.8020   38.9840   22.1890 H       1  UNL1        0.0265
     31 H          -1.1160   38.8760   23.1210 H       1  UNL1        0.0265
     32 H           0.5470   36.9240   21.4400 H       1  UNL1        0.0265
     33 H          -2.3790   36.8160   22.3540 H       1  UNL1        0.0263
     34 H          -2.3980   34.6070   21.2400 H       1  UNL1        0.0230
     35 H           3.6530   43.5000   23.1010 H       1  UNL1        0.2098
     36 H           3.5530   44.6190   25.2720 H       1  UNL1        0.2098
     37 H           2.4550   46.6370   26.7970 H       1  UNL1        0.2098
     38 H           1.1310   48.3990   28.6020 H       1  UNL1        0.2098
     39 H          -0.3500   49.6940   30.7570 H       1  UNL1        0.2098
     40 H           0.3780   46.1340   35.0890 H       1  UNL1        0.2098
     41 H          -0.7340   34.8450   20.6780 H       1  UNL1        0.0230
     42 H           1.1940   44.1660   24.0740 H       1  UNL1        0.0315
     43 H           0.2370   45.6290   25.9200 H       1  UNL1        0.0315
     44 H          -0.8330   46.8670   27.9830 H       1  UNL1        0.0315
     45 H          -1.8480   47.6840   30.3190 H       1  UNL1        0.0315
     46 H          -1.4930   48.8200   33.9080 H       1  UNL1        0.0315
     47 H          -1.7350   45.4200   35.6130 H       1  UNL1        0.0318
     48 H           1.4590   39.9470   24.4560 H       1  UNL1        0.0274
     49 H          -2.1030   42.3030   21.2750 H       1  UNL1        0.0343
     50 H          -0.4130   45.5870   20.4520 H       1  UNL1        0.0265
     51 H          -3.4610   42.9170   34.6030 H       1  UNL1        0.0275
     52 H           0.4930   39.9760   21.5470 H       1  UNL1        0.0265
     53 H           0.1900   37.8600   23.7370 H       1  UNL1        0.0265
     54 H          -0.7500   37.9470   20.8190 H       1  UNL1        0.0265
     55 H          -1.0820   35.7890   22.9710 H       1  UNL1        0.0263
     56 H          -2.0370   35.8780   20.0590 H       1  UNL1        0.0230
     57 H           1.2170   45.0400   20.8560 H       1  UNL1        0.0265
     58 H          -1.8120   43.4520   34.2190 H       1  UNL1        0.0275
     59 C           1.6210   42.4170   22.0060 C.2     1  UNL1        0.3130
     60 O           2.3760   42.8460   21.1450 O.2     1  UNL1       -0.2504
     61 C           2.1000   41.5670   23.1700 C.3     1  UNL1        0.0823
     62 C           2.5070   42.4720   24.3520 C.3     1  UNL1        0.0705
     63 C           1.4150   43.4300   24.8560 C.3     1  UNL1        0.0001
     64 C           1.8470   44.2050   26.1100 C.3     1  UNL1        0.0600
     65 C           0.6600   44.9790   26.6970 C.3     1  UNL1       -0.0006
     66 C           1.0670   45.8470   27.8930 C.3     1  UNL1        0.0599
     67 C          -0.1680   46.3200   28.6640 C.3     1  UNL1       -0.0006
     68 C           0.2050   47.2350   29.8370 C.3     1  UNL1        0.0599
     69 C          -0.9520   47.3160   30.8360 C.3     1  UNL1       -0.0006
     70 C          -0.6390   48.2490   32.0140 C.3     1  UNL1        0.0599
     71 C          -1.5460   47.9650   33.2220 C.3     1  UNL1       -0.0006
     72 C          -1.1360   46.6850   33.9670 C.3     1  UNL1        0.0602
     73 C          -2.1720   46.2150   34.9940 C.3     1  UNL1        0.0032
     74 C          -3.5060   45.7310   34.4010 C.3     1  UNL1        0.0786
     75 C          -3.3610   44.6540   33.3340 C.2     1  UNL1       -0.0445
     76 C          -3.6810   44.9450   32.0560 C.2     1  UNL1       -0.0604
     77 C          -3.5310   44.0930   30.8950 C.2     1  UNL1       -0.0617
     78 C          -3.6980   44.5580   29.6470 C.2     1  UNL1       -0.0618
     79 C           1.0830   40.4810   23.5740 C.3     1  UNL1       -0.0377
     80 C          -3.4610   43.7590   28.4640 C.2     1  UNL1       -0.0618
     81 C          -3.4680   44.2890   27.2320 C.2     1  UNL1       -0.0618
     82 C          -3.1450   43.5350   26.0400 C.2     1  UNL1       -0.0618
     83 C          -3.0160   44.1210   24.8400 C.2     1  UNL1       -0.0621
     84 C          -2.6090   43.4120   23.6480 C.2     1  UNL1       -0.0656
     85 C          -2.3550   44.0450   22.4930 C.2     1  UNL1       -0.0805
     86 C          -1.8370   43.3680   21.2480 C.3     1  UNL1        0.0026
     87 C          -0.3090   43.5000   21.0660 C.3     1  UNL1        0.1037
     88 C           0.1620   44.9530   21.1350 C.3     1  UNL1       -0.0274
     89 C          -2.8220   43.3300   33.8150 C.3     1  UNL1       -0.0411
     90 C           0.8510   39.4640   22.4480 C.3     1  UNL1       -0.0522
     91 O           0.2990   42.6960   22.1020 O.3     1  UNL1       -0.4611
     92 C          -0.1680   38.3960   22.8500 C.3     1  UNL1       -0.0530
     93 C          -0.4020   37.4060   21.7080 C.3     1  UNL1       -0.0533
     94 C          -1.4280   36.3400   22.0890 C.3     1  UNL1       -0.0559
     95 C          -1.6610   35.3610   20.9480 C.3     1  UNL1       -0.0653
     96 O           3.6860   43.2280   24.0410 O.3     1  UNL1       -0.3909
     97 O           2.8890   45.1290   25.7900 O.3     1  UNL1       -0.3916
     98 O           1.8020   46.9880   27.4460 O.3     1  UNL1       -0.3916
     99 O           0.5120   48.5430   29.3540 O.3     1  UNL1       -0.3916
    100 O          -0.8690   49.5940   31.5850 O.3     1  UNL1       -0.3916
    101 O           0.0900   46.9560   34.6550 O.3     1  UNL1       -0.3916
    102 O          -4.3090   45.2000   35.4530 O.3     1  UNL1       -0.3874
@<TRIPOS>BOND
     1    56    95    1
     2    27    87    1
     3    26    86    1
     4    50    88    1
     5    41    95    1
     6    54    93    1
     7    57    88    1
     8    95    34    1
     9    95    94    1
    10    87    88    1
    11    87    86    1
    12    87    91    1
    13    88    28    1
    14    60    59    2
    15    86    49    1
    16    86    85    1
    17    32    93    1
    18    52    90    1
    19    93    94    1
    20    93    92    1
    21    59    91    1
    22    59    61    1
    23    94    33    1
    24    94    55    1
    25    30    90    1
    26     2    85    1
    27    90    92    1
    28    90    79    1
    29    85    84    2
    30    11    61    1
    31    92    31    1
    32    92    53    1
    33    35    96    1
    34    61    79    1
    35    61    62    1
    36    79    25    1
    37    79    48    1
    38    84     1    1
    39    84    83    1
    40    96    62    1
    41    42    63    1
    42    62    63    1
    43    62    12    1
    44     4    83    1
    45    83    82    2
    46    63    13    1
    47    63    64    1
    48    36    97    1
    49    97    64    1
    50    43    65    1
    51    82     3    1
    52    82    81    1
    53    64    65    1
    54    64    14    1
    55    65    15    1
    56    65    66    1
    57    37    98    1
    58     5    81    1
    59    81    80    2
    60    98    66    1
    61    66    16    1
    62    66    67    1
    63    44    67    1
    64    80     6    1
    65    80    78    1
    66    38    99    1
    67    67    17    1
    68    67    68    1
    69    99    68    1
    70     7    78    1
    71    78    77    2
    72    68    18    1
    73    68    69    1
    74    45    69    1
    75    39   100    1
    76    69    19    1
    77    69    70    1
    78    77     8    1
    79    77    76    1
    80   100    70    1
    81     9    76    1
    82    70    20    1
    83    70    71    1
    84    76    75    2
    85    21    71    1
    86    29    89    1
    87    71    46    1
    88    71    72    1
    89    22    72    1
    90    75    89    1
    91    75    74    1
    92    89    58    1
    93    89    51    1
    94    72   101    1
    95    72    73    1
    96    24    74    1
    97    74    73    1
    98    74   102    1
    99   101    40    1
   100    73    47    1
   101    73    23    1
   102   102    10    1
