@<TRIPOS>MOLECULE
32.76087
 102 102 0 0 0
SMALL
GASTEIGER

@<TRIPOS>ATOM
      1 H           5.1210   38.0430   23.3320 H       1  UNL1        0.0614
      2 H           2.8150   36.9980   25.0710 H       1  UNL1        0.0573
      3 H           7.2590   37.9360   24.4460 H       1  UNL1        0.0618
      4 H           4.9250   37.3400   26.3590 H       1  UNL1        0.0617
      5 H           7.1120   37.5810   27.5340 H       1  UNL1        0.0618
      6 H           9.4210   37.8370   25.5160 H       1  UNL1        0.0618
      7 H           9.3230   37.7840   28.6260 H       1  UNL1        0.0618
      8 H          11.5900   37.9020   26.5600 H       1  UNL1        0.0618
      9 H          11.4690   38.1080   29.6520 H       1  UNL1        0.0618
     10 H          15.5340   38.0300   31.0220 H       1  UNL1        0.2102
     11 H           0.8020   41.1490   25.4010 H       1  UNL1        0.0439
     12 H           2.9530   42.7450   23.9140 H       1  UNL1        0.0602
     13 H           3.8480   40.7070   25.0520 H       1  UNL1        0.0315
     14 H           5.1940   42.8670   25.2340 H       1  UNL1        0.0595
     15 H           6.2020   40.8340   26.1390 H       1  UNL1        0.0315
     16 H           7.2720   43.0780   26.8690 H       1  UNL1        0.0595
     17 H           8.4770   40.9870   27.3250 H       1  UNL1        0.0315
     18 H           9.2760   43.1200   28.5600 H       1  UNL1        0.0595
     19 H          10.6650   41.0910   28.5790 H       1  UNL1        0.0315
     20 H          11.2800   43.0040   30.2410 H       1  UNL1        0.0595
     21 H          11.9190   40.1340   31.1010 H       1  UNL1        0.0315
     22 H          12.8460   40.9550   28.7770 H       1  UNL1        0.0595
     23 H          14.9020   40.3750   30.9880 H       1  UNL1        0.0318
     24 H          13.3760   38.4530   30.8410 H       1  UNL1        0.0641
     25 H           0.5330   42.9230   22.9210 H       1  UNL1        0.0274
     26 H           2.4220   36.5640   22.4390 H       1  UNL1        0.0343
     27 H           0.6770   38.4150   22.1650 H       1  UNL1        0.0734
     28 H           0.4420   36.8130   24.7600 H       1  UNL1        0.0265
     29 H          13.6910   37.8850   26.5670 H       1  UNL1        0.0275
     30 H          -0.9380   40.9450   22.6550 H       1  UNL1        0.0265
     31 H          -2.1420   41.8420   25.3310 H       1  UNL1        0.0265
     32 H          -2.9800   39.6510   23.3550 H       1  UNL1        0.0265
     33 H          -4.1910   40.5070   26.0400 H       1  UNL1        0.0263
     34 H          -5.7500   38.6240   25.6660 H       1  UNL1        0.0230
     35 H           1.5220   43.2280   26.3250 H       1  UNL1        0.2098
     36 H           3.5800   43.9370   26.4740 H       1  UNL1        0.2098
     37 H           5.4090   43.4960   28.2550 H       1  UNL1        0.2098
     38 H           7.3530   43.0110   29.9360 H       1  UNL1        0.2098
     39 H           9.3810   42.4490   31.5280 H       1  UNL1        0.2098
     40 H          14.5230   42.4690   28.9630 H       1  UNL1        0.2098
     41 H          -5.0270   38.3030   24.0800 H       1  UNL1        0.0230
     42 H           2.9960   41.1710   26.5350 H       1  UNL1        0.0315
     43 H           5.2110   40.9380   27.6050 H       1  UNL1        0.0315
     44 H           7.4560   40.6640   28.7380 H       1  UNL1        0.0315
     45 H           9.6990   40.4010   29.8940 H       1  UNL1        0.0315
     46 H          12.6950   41.5460   31.7810 H       1  UNL1        0.0315
     47 H          15.2500   40.3260   29.2990 H       1  UNL1        0.0318
     48 H          -0.1580   43.2550   24.5020 H       1  UNL1        0.0274
     49 H           3.0460   38.1910   22.2310 H       1  UNL1        0.0343
     50 H           0.0800   36.1890   23.1320 H       1  UNL1        0.0265
     51 H          15.0580   37.5920   27.6170 H       1  UNL1        0.0275
     52 H          -1.8270   42.4340   22.9160 H       1  UNL1        0.0265
     53 H          -1.2860   40.3210   25.0710 H       1  UNL1        0.0265
     54 H          -3.8570   41.1560   23.6400 H       1  UNL1        0.0265
     55 H          -3.3080   39.0050   25.7570 H       1  UNL1        0.0263
     56 H          -5.9160   39.8130   24.3630 H       1  UNL1        0.0230
     57 H          -0.8680   37.5180   23.8320 H       1  UNL1        0.0265
     58 H          14.5780   39.2570   27.2300 H       1  UNL1        0.0275
     59 C           1.5620   40.4320   23.5240 C.2     1  UNL1        0.3130
     60 O           2.1330   40.5710   22.4530 O.2     1  UNL1       -0.2504
     61 C           1.2070   41.5630   24.4690 C.3     1  UNL1        0.0823
     62 C           2.4700   42.3740   24.8260 C.3     1  UNL1        0.0705
     63 C           3.4990   41.5610   25.6410 C.3     1  UNL1        0.0001
     64 C           4.7100   42.3990   26.0990 C.3     1  UNL1        0.0600
     65 C           5.7410   41.5310   26.8470 C.3     1  UNL1       -0.0006
     66 C           6.8240   42.3580   27.5650 C.3     1  UNL1        0.0599
     67 C           7.9290   41.4600   28.1480 C.3     1  UNL1       -0.0006
     68 C           8.9020   42.2230   29.0680 C.3     1  UNL1        0.0599
     69 C          10.0920   41.3380   29.4780 C.3     1  UNL1       -0.0006
     70 C          10.9960   41.9910   30.5440 C.3     1  UNL1        0.0599
     71 C          12.2430   41.1520   30.8600 C.3     1  UNL1       -0.0006
     72 C          13.2990   41.1540   29.7510 C.3     1  UNL1        0.0602
     73 C          14.4370   40.1540   30.0180 C.3     1  UNL1        0.0032
     74 C          14.0190   38.6740   29.9820 C.3     1  UNL1        0.0786
     75 C          13.3230   38.2890   28.6860 C.2     1  UNL1       -0.0445
     76 C          11.9920   38.0690   28.6950 C.2     1  UNL1       -0.0604
     77 C          11.1350   37.8870   27.5450 C.2     1  UNL1       -0.0617
     78 C           9.8010   37.7880   27.6490 C.2     1  UNL1       -0.0618
     79 C           0.1190   42.4440   23.8180 C.3     1  UNL1       -0.0377
     80 C           8.9390   37.7550   26.4890 C.2     1  UNL1       -0.0618
     81 C           7.6030   37.6710   26.5680 C.2     1  UNL1       -0.0618
     82 C           6.7630   37.7320   25.3940 C.2     1  UNL1       -0.0618
     83 C           5.4330   37.5660   25.4240 C.2     1  UNL1       -0.0621
     84 C           4.6250   37.6860   24.2340 C.2     1  UNL1       -0.0656
     85 C           3.3190   37.3830   24.1880 C.2     1  UNL1       -0.0805
     86 C           2.5040   37.5420   22.9300 C.3     1  UNL1        0.0026
     87 C           1.0910   38.1190   23.1380 C.3     1  UNL1        0.1037
     88 C           0.1380   37.0920   23.7460 C.3     1  UNL1       -0.0274
     89 C          14.2010   38.2560   27.4590 C.3     1  UNL1       -0.0411
     90 C          -1.1660   41.7090   23.4080 C.3     1  UNL1       -0.0522
     91 O           1.0760   39.2620   24.0160 O.3     1  UNL1       -0.4611
     92 C          -1.9130   41.0740   24.5820 C.3     1  UNL1       -0.0530
     93 C          -3.2100   40.4080   24.1150 C.3     1  UNL1       -0.0533
     94 C          -3.9510   39.7540   25.2800 C.3     1  UNL1       -0.0559
     95 C          -5.2360   39.0850   24.8170 C.3     1  UNL1       -0.0653
     96 O           2.0940   43.5290   25.5930 O.3     1  UNL1       -0.3909
     97 O           4.2750   43.4480   26.9690 O.3     1  UNL1       -0.3916
     98 O           6.2300   43.1030   28.6340 O.3     1  UNL1       -0.3916
     99 O           8.2160   42.6480   30.2500 O.3     1  UNL1       -0.3916
    100 O          10.2650   42.0930   31.7730 O.3     1  UNL1       -0.3916
    101 O          13.8590   42.4680   29.6750 O.3     1  UNL1       -0.3916
    102 O          15.1770   37.8580   30.1340 O.3     1  UNL1       -0.3874
@<TRIPOS>BOND
     1    27    87    1
     2    49    86    1
     3    26    86    1
     4    60    59    2
     5    30    90    1
     6    52    90    1
     7    25    79    1
     8    86    87    1
     9    86    85    1
    10    50    88    1
    11    87    88    1
    12    87    91    1
    13     1    84    1
    14    32    93    1
    15    90    79    1
    16    90    92    1
    17    59    91    1
    18    59    61    1
    19    54    93    1
    20    88    57    1
    21    88    28    1
    22    79    61    1
    23    79    48    1
    24    12    62    1
    25    41    95    1
    26    93    92    1
    27    93    94    1
    28    85    84    2
    29    85     2    1
    30    84    83    1
    31    56    95    1
    32     3    82    1
    33    61    62    1
    34    61    11    1
    35    92    53    1
    36    92    31    1
    37    95    94    1
    38    95    34    1
    39    62    96    1
    40    62    63    1
    41    13    63    1
    42    14    64    1
    43    94    55    1
    44    94    33    1
    45    82    83    2
    46    82    81    1
    47    83     4    1
    48     6    80    1
    49    96    35    1
    50    63    64    1
    51    63    42    1
    52    64    65    1
    53    64    97    1
    54    15    65    1
    55    36    97    1
    56    80    81    2
    57    80    78    1
    58     8    77    1
    59    29    89    1
    60    81     5    1
    61    65    66    1
    62    65    43    1
    63    16    66    1
    64    58    89    1
    65    17    67    1
    66    89    51    1
    67    89    75    1
    68    77    78    2
    69    77    76    1
    70    66    67    1
    71    66    98    1
    72    78     7    1
    73    67    44    1
    74    67    68    1
    75    37    98    1
    76    18    68    1
    77    19    69    1
    78    75    76    2
    79    75    74    1
    80    76     9    1
    81    22    72    1
    82    40   101    1
    83    68    69    1
    84    68    99    1
    85    47    73    1
    86    69    45    1
    87    69    70    1
    88   101    72    1
    89    72    73    1
    90    72    71    1
    91    38    99    1
    92    74    73    1
    93    74   102    1
    94    74    24    1
    95    73    23    1
    96   102    10    1
    97    20    70    1
    98    70    71    1
    99    70   100    1
   100    71    21    1
   101    71    46    1
   102    39   100    1
