@<TRIPOS>MOLECULE
38.13971
 102 102 0 0 0
SMALL
GASTEIGER

@<TRIPOS>ATOM
      1 H           1.3220   42.4190   18.7640 H       1  UNL1        0.0614
      2 H           0.9500   45.2050   20.0060 H       1  UNL1        0.0573
      3 H           3.3140   42.2640   17.3840 H       1  UNL1        0.0618
      4 H           3.0780   44.9960   18.7750 H       1  UNL1        0.0617
      5 H           5.1250   44.8010   17.3960 H       1  UNL1        0.0618
      6 H           5.2950   42.0550   16.0240 H       1  UNL1        0.0618
      7 H           7.1440   44.5620   15.9580 H       1  UNL1        0.0618
      8 H           7.3430   41.7040   14.8470 H       1  UNL1        0.0618
      9 H           9.1710   42.5500   13.5830 H       1  UNL1        0.0618
     10 H          12.5070   45.1220   13.8160 H       1  UNL1        0.2102
     11 H           1.5010   40.3500   23.6250 H       1  UNL1        0.0439
     12 H           2.8720   43.0080   22.9520 H       1  UNL1        0.0602
     13 H           2.9010   41.1910   21.1900 H       1  UNL1        0.0315
     14 H           4.9200   42.6880   21.4070 H       1  UNL1        0.0595
     15 H           4.9460   40.8920   19.6750 H       1  UNL1        0.0315
     16 H           7.0720   42.2730   20.0750 H       1  UNL1        0.0595
     17 H           6.9310   40.6390   18.1680 H       1  UNL1        0.0315
     18 H           9.0820   41.9460   18.6960 H       1  UNL1        0.0595
     19 H           8.7870   40.5210   16.6080 H       1  UNL1        0.0315
     20 H          10.9040   41.9150   17.2390 H       1  UNL1        0.0595
     21 H          10.3860   40.8000   14.9070 H       1  UNL1        0.0315
     22 H          13.3490   40.9590   15.5680 H       1  UNL1        0.0595
     23 H          13.4400   43.2440   14.8000 H       1  UNL1        0.0318
     24 H          11.2980   43.3520   13.4510 H       1  UNL1        0.0641
     25 H           0.9780   43.0240   25.0210 H       1  UNL1        0.0274
     26 H          -0.7050   42.5800   19.9730 H       1  UNL1        0.0343
     27 H          -0.7080   44.8820   21.9960 H       1  UNL1        0.0734
     28 H          -2.3020   42.2750   22.0570 H       1  UNL1        0.0265
     29 H           9.1520   43.9170   17.1440 H       1  UNL1        0.0275
     30 H          -0.2850   40.2520   25.3900 H       1  UNL1        0.0265
     31 H          -0.8000   42.9330   26.7850 H       1  UNL1        0.0265
     32 H          -2.0970   40.1820   27.1690 H       1  UNL1        0.0265
     33 H          -2.5980   42.8710   28.5580 H       1  UNL1        0.0263
     34 H          -4.2110   41.5960   29.9330 H       1  UNL1        0.0230
     35 H           3.7450   40.9350   24.6940 H       1  UNL1        0.2098
     36 H           5.3570   41.9660   23.5940 H       1  UNL1        0.2098
     37 H           7.3590   41.1410   22.1740 H       1  UNL1        0.2098
     38 H           9.4260   40.5310   20.5990 H       1  UNL1        0.2098
     39 H          11.5170   40.2060   18.7490 H       1  UNL1        0.2098
     40 H          13.5750   41.0950   13.4670 H       1  UNL1        0.2098
     41 H          -3.9130   40.1340   28.9770 H       1  UNL1        0.0230
     42 H           3.6130   40.0960   22.3890 H       1  UNL1        0.0315
     43 H           5.5600   39.7380   20.8750 H       1  UNL1        0.0315
     44 H           7.5490   39.3620   19.2390 H       1  UNL1        0.0315
     45 H           9.5790   39.1850   17.4670 H       1  UNL1        0.0315
     46 H          11.4400   39.5210   15.4170 H       1  UNL1        0.0315
     47 H          12.5300   43.1580   16.2720 H       1  UNL1        0.0318
     48 H           1.7530   41.6240   25.7520 H       1  UNL1        0.0274
     49 H          -1.3910   44.1760   19.7440 H       1  UNL1        0.0343
     50 H          -2.9440   43.8980   21.7520 H       1  UNL1        0.0265
     51 H           9.6580   45.4180   16.3360 H       1  UNL1        0.0275
     52 H          -1.1040   41.6330   24.6630 H       1  UNL1        0.0265
     53 H          -0.0160   41.5330   27.5220 H       1  UNL1        0.0265
     54 H          -2.8790   41.5780   26.4260 H       1  UNL1        0.0265
     55 H          -1.8220   41.4710   29.3030 H       1  UNL1        0.0263
     56 H          -4.6920   41.5420   28.2280 H       1  UNL1        0.0230
     57 H          -2.2440   43.4860   23.3330 H       1  UNL1        0.0265
     58 H          10.8450   44.3220   17.0440 H       1  UNL1        0.0275
     59 C           0.5050   41.8730   22.5260 C.2     1  UNL1        0.3130
     60 O          -0.0180   41.0860   21.7490 O.2     1  UNL1       -0.2504
     61 C           1.4920   41.4480   23.5990 C.3     1  UNL1        0.0823
     62 C           2.9050   41.9480   23.2320 C.3     1  UNL1        0.0705
     63 C           3.5420   41.1460   22.0770 C.3     1  UNL1        0.0001
     64 C           4.9580   41.6350   21.7100 C.3     1  UNL1        0.0600
     65 C           5.5670   40.7940   20.5720 C.3     1  UNL1       -0.0006
     66 C           7.0200   41.1930   20.2570 C.3     1  UNL1        0.0599
     67 C           7.5720   40.4400   19.0350 C.3     1  UNL1       -0.0006
     68 C           9.0210   40.8520   18.7250 C.3     1  UNL1        0.0599
     69 C           9.5120   40.2770   17.3900 C.3     1  UNL1       -0.0006
     70 C          10.8940   40.8460   17.0260 C.3     1  UNL1        0.0599
     71 C          11.2390   40.5930   15.5580 C.3     1  UNL1       -0.0006
     72 C          12.4670   41.3610   15.0540 C.3     1  UNL1        0.0602
     73 C          12.4830   42.8910   15.2100 C.3     1  UNL1        0.0032
     74 C          11.3720   43.6890   14.4920 C.3     1  UNL1        0.0786
     75 C          10.0050   43.6590   15.1570 C.2     1  UNL1       -0.0445
     76 C           8.9830   43.0230   14.5490 C.2     1  UNL1       -0.0604
     77 C           7.6680   42.7210   15.0670 C.2     1  UNL1       -0.0617
     78 C           6.8550   43.5350   15.7540 C.2     1  UNL1       -0.0618
     79 C           1.0230   41.9280   24.9920 C.3     1  UNL1       -0.0377
     80 C           5.5980   43.0650   16.2930 C.2     1  UNL1       -0.0618
     81 C           4.8290   43.7930   17.1160 C.2     1  UNL1       -0.0618
     82 C           3.5990   43.2750   17.6720 C.2     1  UNL1       -0.0618
     83 C           2.8100   43.9800   18.4950 C.2     1  UNL1       -0.0621
     84 C           1.5740   43.4480   19.0180 C.2     1  UNL1       -0.0656
     85 C           0.7240   44.1690   19.7630 C.2     1  UNL1       -0.0805
     86 C          -0.5910   43.6300   20.2600 C.3     1  UNL1        0.0026
     87 C          -0.7710   43.8080   21.7760 C.3     1  UNL1        0.1037
     88 C          -2.1450   43.3410   22.2520 C.3     1  UNL1       -0.0274
     89 C           9.9050   44.3620   16.4890 C.3     1  UNL1       -0.0411
     90 C          -0.3390   41.3470   25.3930 C.3     1  UNL1       -0.0522
     91 O           0.2750   43.2110   22.5770 O.3     1  UNL1       -0.4611
     92 C          -0.7640   41.8370   26.7790 C.3     1  UNL1       -0.0530
     93 C          -2.1330   41.2780   27.1710 C.3     1  UNL1       -0.0533
     94 C          -2.5610   41.7750   28.5520 C.3     1  UNL1       -0.0559
     95 C          -3.9240   41.2280   28.9420 C.3     1  UNL1       -0.0653
     96 O           3.7730   41.8570   24.3710 O.3     1  UNL1       -0.3909
     97 O           5.8290   41.5430   22.8420 O.3     1  UNL1       -0.3916
     98 O           7.8740   40.9000   21.3690 O.3     1  UNL1       -0.3916
     99 O           9.9110   40.4000   19.7500 O.3     1  UNL1       -0.3916
    100 O          11.9020   40.2540   17.8450 O.3     1  UNL1       -0.3916
    101 O          12.6220   41.0560   13.6620 O.3     1  UNL1       -0.3916
    102 O          11.7650   45.0650   14.4410 O.3     1  UNL1       -0.3874
@<TRIPOS>BOND
     1    24    74    1
     2    40   101    1
     3     9    76    1
     4   101    72    1
     5    10   102    1
     6   102    74    1
     7    74    75    1
     8    74    73    1
     9    76    77    1
    10    76    75    2
    11    23    73    1
    12     8    77    1
    13    21    71    1
    14    72    73    1
    15    72    71    1
    16    72    22    1
    17    77    78    2
    18    75    89    1
    19    73    47    1
    20    46    71    1
    21    71    70    1
    22    78     7    1
    23    78    80    1
    24     6    80    1
    25    80    81    2
    26    51    89    1
    27    89    58    1
    28    89    29    1
    29    19    69    1
    30    70    20    1
    31    70    69    1
    32    70   100    1
    33    81     5    1
    34    81    82    1
    35     3    82    1
    36    69    45    1
    37    69    68    1
    38    82    83    2
    39   100    39    1
    40    17    67    1
    41    83     4    1
    42    83    84    1
    43    18    68    1
    44    68    67    1
    45    68    99    1
    46     1    84    1
    47    84    85    2
    48    67    44    1
    49    67    66    1
    50    15    65    1
    51    49    86    1
    52    99    38    1
    53    85     2    1
    54    85    86    1
    55    26    86    1
    56    16    66    1
    57    66    65    1
    58    66    98    1
    59    86    87    1
    60    65    43    1
    61    65    64    1
    62    13    63    1
    63    98    37    1
    64    14    64    1
    65    64    63    1
    66    64    97    1
    67    60    59    2
    68    50    88    1
    69    87    27    1
    70    87    88    1
    71    87    91    1
    72    28    88    1
    73    63    42    1
    74    63    62    1
    75    88    57    1
    76    59    91    1
    77    59    61    1
    78    97    36    1
    79    12    62    1
    80    62    61    1
    81    62    96    1
    82    61    11    1
    83    61    79    1
    84    96    35    1
    85    52    90    1
    86    79    25    1
    87    79    90    1
    88    79    48    1
    89    30    90    1
    90    90    92    1
    91    54    93    1
    92    92    31    1
    93    92    93    1
    94    92    53    1
    95    32    93    1
    96    93    94    1
    97    56    95    1
    98    94    33    1
    99    94    95    1
   100    94    55    1
   101    95    41    1
   102    95    34    1
