@<TRIPOS>MOLECULE
46.08588
 102 102 0 0 0
SMALL
GASTEIGER

@<TRIPOS>ATOM
      1 H           5.8990   39.5480   24.1130 H       1  UNL1        0.0614
      2 H           3.3630   37.8860   23.5920 H       1  UNL1        0.0573
      3 H           6.4280   39.5760   26.5670 H       1  UNL1        0.0618
      4 H           3.8170   38.0910   25.9150 H       1  UNL1        0.0617
      5 H           3.9990   38.6320   28.2590 H       1  UNL1        0.0618
      6 H           6.8110   39.5980   29.0410 H       1  UNL1        0.0618
      7 H           4.1400   39.3020   30.5950 H       1  UNL1        0.0618
      8 H           7.0550   39.5930   31.5140 H       1  UNL1        0.0618
      9 H           4.3160   39.9890   32.8880 H       1  UNL1        0.0618
     10 H           4.6190   39.3760   36.9310 H       1  UNL1        0.2102
     11 H           1.5760   39.3730   24.8550 H       1  UNL1        0.0439
     12 H           0.1110   42.0220   25.1970 H       1  UNL1        0.0602
     13 H           2.5150   41.9290   25.9180 H       1  UNL1        0.0315
     14 H           0.8900   43.1760   27.4500 H       1  UNL1        0.0595
     15 H           3.2310   43.3480   28.0070 H       1  UNL1        0.0315
     16 H           1.6150   43.8200   30.0000 H       1  UNL1        0.0595
     17 H           3.9360   44.5110   30.2150 H       1  UNL1        0.0315
     18 H           2.5560   44.2490   32.4200 H       1  UNL1        0.0595
     19 H           4.7480   45.4450   32.2970 H       1  UNL1        0.0315
     20 H           5.4150   45.4180   34.5940 H       1  UNL1        0.0595
     21 H           3.7540   42.8880   35.0730 H       1  UNL1        0.0315
     22 H           6.1870   42.5090   34.1390 H       1  UNL1        0.0595
     23 H           5.3710   41.6700   36.9710 H       1  UNL1        0.0318
     24 H           4.2270   40.4850   35.0900 H       1  UNL1        0.0641
     25 H          -0.7200   38.7180   24.6080 H       1  UNL1        0.0274
     26 H           3.9270   38.1720   21.2900 H       1  UNL1        0.0343
     27 H           3.8650   41.0980   22.1910 H       1  UNL1        0.0734
     28 H           2.5580   39.6850   19.8030 H       1  UNL1        0.0265
     29 H           7.8950   38.9010   33.4350 H       1  UNL1        0.0275
     30 H          -0.9610   40.7990   22.3710 H       1  UNL1        0.0265
     31 H          -2.9120   38.7230   23.5040 H       1  UNL1        0.0265
     32 H          -3.2050   40.6620   21.1510 H       1  UNL1        0.0265
     33 H          -5.1370   38.6040   22.3550 H       1  UNL1        0.0263
     34 H          -6.6150   39.2320   20.4800 H       1  UNL1        0.0230
     35 H          -0.1700   39.6130   26.6870 H       1  UNL1        0.2098
     36 H          -0.2910   41.3080   28.0030 H       1  UNL1        0.2098
     37 H           1.1410   41.5550   30.1750 H       1  UNL1        0.2098
     38 H           2.7170   41.9510   32.2550 H       1  UNL1        0.2098
     39 H           3.5020   46.3810   34.2130 H       1  UNL1        0.2098
     40 H           7.8120   43.1150   35.5800 H       1  UNL1        0.2098
     41 H          -5.4590   40.4610   19.9390 H       1  UNL1        0.0230
     42 H           2.1650   40.4600   26.8400 H       1  UNL1        0.0315
     43 H           3.2890   41.6830   28.5960 H       1  UNL1        0.0315
     44 H           4.4680   42.8440   30.4940 H       1  UNL1        0.0315
     45 H           5.6090   43.9390   32.5940 H       1  UNL1        0.0315
     46 H           4.4840   43.9040   36.2770 H       1  UNL1        0.0315
     47 H           6.9200   41.2180   36.3620 H       1  UNL1        0.0318
     48 H           0.1000   38.6510   23.0710 H       1  UNL1        0.0274
     49 H           5.2960   39.2330   21.6200 H       1  UNL1        0.0343
     50 H           4.0200   40.6990   19.7270 H       1  UNL1        0.0265
     51 H           7.6170   38.8440   35.1610 H       1  UNL1        0.0275
     52 H          -1.7850   40.9090   23.9300 H       1  UNL1        0.0265
     53 H          -2.0790   38.5830   21.9560 H       1  UNL1        0.0265
     54 H          -4.0300   40.8230   22.7050 H       1  UNL1        0.0265
     55 H          -4.3030   38.4240   20.8110 H       1  UNL1        0.0263
     56 H          -6.2950   40.6500   21.4940 H       1  UNL1        0.0230
     57 H           2.4470   41.3990   20.1720 H       1  UNL1        0.0265
     58 H           8.0810   40.3770   34.3940 H       1  UNL1        0.0275
     59 C           1.7200   40.8480   23.3600 C.2     1  UNL1        0.3130
     60 O           2.0900   42.0120   23.4210 O.2     1  UNL1       -0.2504
     61 C           0.9050   40.1330   24.4300 C.3     1  UNL1        0.0823
     62 C           0.5270   41.0870   25.5890 C.3     1  UNL1        0.0705
     63 C           1.7400   41.4120   26.4930 C.3     1  UNL1        0.0001
     64 C           1.3900   42.2450   27.7400 C.3     1  UNL1        0.0600
     65 C           2.6610   42.5820   28.5460 C.3     1  UNL1       -0.0006
     66 C           2.3780   43.0330   29.9890 C.3     1  UNL1        0.0599
     67 C           3.6530   43.5570   30.6760 C.3     1  UNL1       -0.0006
     68 C           3.4880   43.7180   32.2000 C.3     1  UNL1        0.0599
     69 C           4.6780   44.4760   32.8080 C.3     1  UNL1       -0.0006
     70 C           4.5830   44.7570   34.3200 C.3     1  UNL1        0.0599
     71 C           4.6180   43.5340   35.2500 C.3     1  UNL1       -0.0006
     72 C           5.9330   42.7490   35.1740 C.3     1  UNL1        0.0602
     73 C           5.9050   41.4760   36.0310 C.3     1  UNL1        0.0032
     74 C           5.2740   40.2620   35.3290 C.3     1  UNL1        0.0786
     75 C           6.0280   39.8180   34.0850 C.2     1  UNL1       -0.0445
     76 C           5.3840   39.7680   32.9020 C.2     1  UNL1       -0.0604
     77 C           5.9730   39.5420   31.6000 C.2     1  UNL1       -0.0617
     78 C           5.2240   39.3560   30.5040 C.2     1  UNL1       -0.0618
     79 C          -0.2770   39.3510   23.8280 C.3     1  UNL1       -0.0377
     80 C           5.7750   39.2930   29.1690 C.2     1  UNL1       -0.0618
     81 C           5.0310   38.9480   28.1090 C.2     1  UNL1       -0.0618
     82 C           5.4920   39.0510   26.7430 C.2     1  UNL1       -0.0618
     83 C           4.7500   38.6160   25.7160 C.2     1  UNL1       -0.0621
     84 C           5.0520   38.9020   24.3320 C.2     1  UNL1       -0.0656
     85 C           4.2220   38.5130   23.3540 C.2     1  UNL1       -0.0805
     86 C           4.2710   38.9960   21.9280 C.3     1  UNL1        0.0026
     87 C           3.3620   40.2320   21.7440 C.3     1  UNL1        0.1037
     88 C           3.0900   40.5190   20.2750 C.3     1  UNL1       -0.0274
     89 C           7.4820   39.4690   34.2730 C.3     1  UNL1       -0.0411
     90 C          -1.3750   40.2070   23.1950 C.3     1  UNL1       -0.0522
     91 O           2.1040   39.9590   22.4000 O.3     1  UNL1       -0.4611
     92 C          -2.4950   39.3030   22.6710 C.3     1  UNL1       -0.0530
     93 C          -3.6130   40.0970   21.9970 C.3     1  UNL1       -0.0533
     94 C          -4.7190   39.1610   21.5080 C.3     1  UNL1       -0.0559
     95 C          -5.8360   39.9240   20.8150 C.3     1  UNL1       -0.0653
     96 O          -0.4930   40.4890   26.4040 O.3     1  UNL1       -0.3909
     97 O           0.4860   41.5110   28.5720 O.3     1  UNL1       -0.3916
     98 O           1.8660   41.9220   30.7340 O.3     1  UNL1       -0.3916
     99 O           3.4090   42.4170   32.7780 O.3     1  UNL1       -0.3916
    100 O           3.3830   45.4920   34.5880 O.3     1  UNL1       -0.3916
    101 O           6.9740   43.6030   35.6660 O.3     1  UNL1       -0.3916
    102 O           5.2680   39.1630   36.2390 O.3     1  UNL1       -0.3874
@<TRIPOS>BOND
     1    50    88    1
     2    28    88    1
     3    41    95    1
     4    57    88    1
     5    88    87    1
     6    34    95    1
     7    55    94    1
     8    95    56    1
     9    95    94    1
    10    32    93    1
    11    26    86    1
    12    94    93    1
    13    94    33    1
    14    49    86    1
    15    87    86    1
    16    87    27    1
    17    87    91    1
    18    86    85    1
    19    53    92    1
    20    93    92    1
    21    93    54    1
    22    30    90    1
    23    91    59    1
    24    92    90    1
    25    92    31    1
    26    48    79    1
    27    90    79    1
    28    90    52    1
    29    85     2    1
    30    85    84    2
    31    59    60    2
    32    59    61    1
    33    79    61    1
    34    79    25    1
    35     1    84    1
    36    84    83    1
    37    61    11    1
    38    61    62    1
    39    12    62    1
    40    62    96    1
    41    62    63    1
    42    83     4    1
    43    83    82    2
    44    13    63    1
    45    96    35    1
    46    63    42    1
    47    63    64    1
    48     3    82    1
    49    82    81    1
    50    14    64    1
    51    64    65    1
    52    64    97    1
    53    36    97    1
    54    15    65    1
    55    81     5    1
    56    81    80    2
    57    65    43    1
    58    65    66    1
    59     6    80    1
    60    80    78    1
    61    66    16    1
    62    66    67    1
    63    66    98    1
    64    37    98    1
    65    17    67    1
    66    44    67    1
    67    78     7    1
    68    78    77    2
    69    67    68    1
    70     8    77    1
    71    77    76    1
    72    68    18    1
    73    68    99    1
    74    68    69    1
    75    38    99    1
    76    19    69    1
    77    45    69    1
    78    69    70    1
    79     9    76    1
    80    76    75    2
    81    29    89    1
    82    75    89    1
    83    75    74    1
    84    22    72    1
    85    39   100    1
    86    89    58    1
    87    89    51    1
    88    70   100    1
    89    70    20    1
    90    70    71    1
    91    21    71    1
    92    24    74    1
    93    72    71    1
    94    72   101    1
    95    72    73    1
    96    71    46    1
    97    74    73    1
    98    74   102    1
    99    40   101    1
   100    73    47    1
   101    73    23    1
   102   102    10    1
