@<TRIPOS>MOLECULE
45.27233
 102 102 0 0 0
SMALL
GASTEIGER

@<TRIPOS>ATOM
      1 H          -2.5280   42.0400   23.1770 H       1  UNL1        0.0614
      2 H          -2.0750   39.1670   22.1830 H       1  UNL1        0.0573
      3 H          -3.4290   42.1840   25.3780 H       1  UNL1        0.0618
      4 H          -2.7500   39.2830   24.6110 H       1  UNL1        0.0617
      5 H          -3.3740   39.5510   27.0380 H       1  UNL1        0.0618
      6 H          -4.2830   42.4390   27.5910 H       1  UNL1        0.0618
      7 H          -3.9590   39.9570   29.4400 H       1  UNL1        0.0618
      8 H          -5.0120   42.8150   29.8310 H       1  UNL1        0.0618
      9 H          -4.3610   40.5000   31.7830 H       1  UNL1        0.0618
     10 H          -6.2800   40.9670   35.2240 H       1  UNL1        0.2102
     11 H           2.9360   41.0220   22.9880 H       1  UNL1        0.0439
     12 H           2.7950   41.7320   25.3090 H       1  UNL1        0.0602
     13 H           0.2950   41.1300   25.7120 H       1  UNL1        0.0315
     14 H           1.8020   42.3930   27.3090 H       1  UNL1        0.0595
     15 H          -0.6350   41.8510   27.8380 H       1  UNL1        0.0315
     16 H           0.9590   42.9140   29.5100 H       1  UNL1        0.0595
     17 H          -1.4410   42.2900   30.0990 H       1  UNL1        0.0315
     18 H           0.1790   43.1580   31.8410 H       1  UNL1        0.0595
     19 H          -2.1860   42.4900   32.3900 H       1  UNL1        0.0315
     20 H          -0.6230   43.1850   34.2520 H       1  UNL1        0.0595
     21 H          -3.5310   44.1200   34.5980 H       1  UNL1        0.0315
     22 H          -2.0030   41.6570   35.6220 H       1  UNL1        0.0595
     23 H          -3.9190   40.3200   34.8920 H       1  UNL1        0.0318
     24 H          -5.3300   42.7600   34.5940 H       1  UNL1        0.0641
     25 H           1.8260   38.8440   23.1120 H       1  UNL1        0.0274
     26 H          -1.6410   42.0220   21.0320 H       1  UNL1        0.0343
     27 H          -0.3220   39.4560   20.0720 H       1  UNL1        0.0734
     28 H           0.4740   42.3800   19.6700 H       1  UNL1        0.0265
     29 H          -6.3060   43.7110   31.2670 H       1  UNL1        0.0275
     30 H           2.2850   37.9930   25.3340 H       1  UNL1        0.0265
     31 H           4.4280   40.0340   24.5380 H       1  UNL1        0.0265
     32 H           4.5900   37.3800   26.0560 H       1  UNL1        0.0265
     33 H           6.7520   39.4220   25.3030 H       1  UNL1        0.0263
     34 H           8.3100   37.7970   26.3260 H       1  UNL1        0.0230
     35 H           1.6850   43.5510   23.4590 H       1  UNL1        0.2098
     36 H           1.9310   44.2260   25.7610 H       1  UNL1        0.2098
     37 H           0.8890   44.9500   28.1400 H       1  UNL1        0.2098
     38 H           0.0920   45.3360   30.6910 H       1  UNL1        0.2098
     39 H          -0.6400   45.4370   33.2550 H       1  UNL1        0.2098
     40 H          -3.5610   41.3880   37.0690 H       1  UNL1        0.2098
     41 H           6.9570   36.7560   26.8020 H       1  UNL1        0.0230
     42 H          -0.0740   42.6710   24.9080 H       1  UNL1        0.0315
     43 H          -1.0530   43.4860   27.2720 H       1  UNL1        0.0315
     44 H          -1.9010   43.9700   29.7430 H       1  UNL1        0.0315
     45 H          -2.6780   44.1860   32.2110 H       1  UNL1        0.0315
     46 H          -2.3740   44.1570   35.8720 H       1  UNL1        0.0315
     47 H          -3.1030   41.0560   33.5420 H       1  UNL1        0.0318
     48 H           0.6530   39.4220   24.2670 H       1  UNL1        0.0274
     49 H          -2.3390   40.7180   20.0940 H       1  UNL1        0.0343
     50 H          -0.2850   41.3210   18.4690 H       1  UNL1        0.0265
     51 H          -5.3510   44.3980   32.5930 H       1  UNL1        0.0275
     52 H           2.4320   39.6030   26.0070 H       1  UNL1        0.0265
     53 H           4.2330   38.4380   23.8110 H       1  UNL1        0.0265
     54 H           4.7750   38.9800   26.7800 H       1  UNL1        0.0265
     55 H           6.5660   37.8260   24.5730 H       1  UNL1        0.0263
     56 H           7.1440   38.3610   27.5350 H       1  UNL1        0.0230
     57 H           1.3530   40.9800   19.0730 H       1  UNL1        0.0265
     58 H          -6.8960   43.5800   32.9080 H       1  UNL1        0.0275
     59 C           0.9680   41.3840   22.3950 C.2     1  UNL1        0.3130
     60 O           0.5320   42.5230   22.2590 O.2     1  UNL1       -0.2504
     61 C           1.9560   40.9790   23.4850 C.3     1  UNL1        0.0823
     62 C           1.9750   42.0090   24.6370 C.3     1  UNL1        0.0705
     63 C           0.6880   42.1230   25.4750 C.3     1  UNL1        0.0001
     64 C           0.9620   42.8720   26.7920 C.3     1  UNL1        0.0600
     65 C          -0.2600   42.8750   27.7220 C.3     1  UNL1       -0.0006
     66 C           0.0910   43.4490   29.1060 C.3     1  UNL1        0.0599
     67 C          -1.0820   43.3250   30.0870 C.3     1  UNL1       -0.0006
     68 C          -0.6880   43.7440   31.5150 C.3     1  UNL1        0.0599
     69 C          -1.8530   43.5210   32.4950 C.3     1  UNL1       -0.0006
     70 C          -1.4790   43.8040   33.9580 C.3     1  UNL1        0.0599
     71 C          -2.6320   43.6050   34.9560 C.3     1  UNL1       -0.0006
     72 C          -2.9460   42.1610   35.3750 C.3     1  UNL1        0.0602
     73 C          -3.7390   41.2850   34.3980 C.3     1  UNL1        0.0032
     74 C          -5.1060   41.8790   33.9820 C.3     1  UNL1        0.0786
     75 C          -5.2550   42.2520   32.5150 C.2     1  UNL1       -0.0445
     76 C          -4.7880   41.4670   31.5220 C.2     1  UNL1       -0.0604
     77 C          -4.7280   41.8060   30.1170 C.2     1  UNL1       -0.0617
     78 C          -4.2580   40.9700   29.1790 C.2     1  UNL1       -0.0618
     79 C           1.7010   39.5300   23.9610 C.3     1  UNL1       -0.0377
     80 C          -4.0640   41.3940   27.8110 C.2     1  UNL1       -0.0618
     81 C          -3.5920   40.5980   26.8400 C.2     1  UNL1       -0.0618
     82 C          -3.3060   41.1100   25.5190 C.2     1  UNL1       -0.0618
     83 C          -2.8710   40.3570   24.4980 C.2     1  UNL1       -0.0621
     84 C          -2.5070   40.9510   23.2330 C.2     1  UNL1       -0.0656
     85 C          -2.1050   40.2540   22.1610 C.2     1  UNL1       -0.0805
     86 C          -1.6290   40.9330   20.9020 C.3     1  UNL1        0.0026
     87 C          -0.2230   40.4740   20.4690 C.3     1  UNL1        0.1037
     88 C           0.3580   41.3390   19.3550 C.3     1  UNL1       -0.0274
     89 C          -5.9840   43.5560   32.3000 C.3     1  UNL1       -0.0411
     90 C           2.5960   39.0180   25.0960 C.3     1  UNL1       -0.0522
     91 O           0.7170   40.3430   21.5610 O.3     1  UNL1       -0.4611
     92 C           4.0830   39.0120   24.7330 C.3     1  UNL1       -0.0530
     93 C           4.9250   38.4060   25.8570 C.3     1  UNL1       -0.0533
     94 C           6.4100   38.3980   25.4950 C.3     1  UNL1       -0.0559
     95 C           7.2520   37.7920   26.6070 C.3     1  UNL1       -0.0653
     96 O           2.3310   43.3150   24.1620 O.3     1  UNL1       -0.3909
     97 O           1.3340   44.2300   26.5420 O.3     1  UNL1       -0.3916
     98 O           0.4470   44.8310   29.0130 O.3     1  UNL1       -0.3916
     99 O          -0.3170   45.1230   31.5620 O.3     1  UNL1       -0.3916
    100 O          -1.0720   45.1700   34.0980 O.3     1  UNL1       -0.3916
    101 O          -3.7080   42.2230   36.5910 O.3     1  UNL1       -0.3916
    102 O          -6.1340   40.9270   34.2630 O.3     1  UNL1       -0.3874
@<TRIPOS>BOND
     1    50    88    1
     2    57    88    1
     3    88    28    1
     4    88    87    1
     5    27    87    1
     6    49    86    1
     7    87    86    1
     8    87    91    1
     9    86    26    1
    10    86    85    1
    11    91    59    1
    12    85     2    1
    13    85    84    2
    14    60    59    2
    15    59    61    1
    16    11    61    1
    17    25    79    1
    18     1    84    1
    19    84    83    1
    20    35    96    1
    21    61    79    1
    22    61    62    1
    23    53    92    1
    24    79    48    1
    25    79    90    1
    26    96    62    1
    27    83     4    1
    28    83    82    2
    29    31    92    1
    30    55    94    1
    31    62    12    1
    32    62    63    1
    33    92    90    1
    34    92    93    1
    35    42    63    1
    36    90    30    1
    37    90    52    1
    38    33    94    1
    39     3    82    1
    40    63    13    1
    41    63    64    1
    42    94    93    1
    43    94    95    1
    44    82    81    1
    45    36    97    1
    46    93    32    1
    47    93    54    1
    48    34    95    1
    49    97    64    1
    50    95    41    1
    51    95    56    1
    52    64    14    1
    53    64    65    1
    54    81     5    1
    55    81    80    2
    56    43    65    1
    57     6    80    1
    58    65    15    1
    59    65    66    1
    60    80    78    1
    61    37    98    1
    62    98    66    1
    63    66    16    1
    64    66    67    1
    65    78     7    1
    66    78    77    2
    67    44    67    1
    68     8    77    1
    69    67    17    1
    70    67    68    1
    71    77    76    1
    72    38    99    1
    73    29    89    1
    74    68    99    1
    75    68    18    1
    76    68    69    1
    77    76     9    1
    78    76    75    2
    79    45    69    1
    80    89    75    1
    81    89    51    1
    82    89    58    1
    83    19    69    1
    84    69    70    1
    85    75    74    1
    86    39   100    1
    87    47    73    1
    88    70   100    1
    89    70    20    1
    90    70    71    1
    91    74   102    1
    92    74    73    1
    93    74    24    1
    94   102    10    1
    95    73    23    1
    96    73    72    1
    97    21    71    1
    98    71    72    1
    99    71    46    1
   100    72    22    1
   101    72   101    1
   102   101    40    1
