@<TRIPOS>MOLECULE
31.61270
 102 102 0 0 0
SMALL
GASTEIGER

@<TRIPOS>ATOM
      1 H          -0.5980   45.1540   23.2720 H       1  UNL1        0.0614
      2 H           1.4580   47.3220   22.5500 H       1  UNL1        0.0573
      3 H          -1.9190   45.7810   25.2480 H       1  UNL1        0.0618
      4 H           0.0590   47.9770   24.3920 H       1  UNL1        0.0617
      5 H          -1.3220   48.6650   26.2590 H       1  UNL1        0.0618
      6 H          -3.0870   46.3970   27.3560 H       1  UNL1        0.0618
      7 H          -2.5740   49.3450   28.2160 H       1  UNL1        0.0618
      8 H          -4.0170   46.9960   29.5620 H       1  UNL1        0.0618
      9 H          -3.6810   50.0030   30.2330 H       1  UNL1        0.0618
     10 H          -6.0150   50.6090   33.6930 H       1  UNL1        0.2102
     11 H           2.7330   41.9530   23.9300 H       1  UNL1        0.0439
     12 H           0.1540   41.7360   25.5650 H       1  UNL1        0.0602
     13 H           1.1740   44.0680   25.2780 H       1  UNL1        0.0315
     14 H          -0.0830   43.4060   27.3740 H       1  UNL1        0.0595
     15 H           0.8660   45.7280   27.0840 H       1  UNL1        0.0315
     16 H          -0.3970   45.0080   29.2080 H       1  UNL1        0.0595
     17 H           0.2630   47.4030   28.7700 H       1  UNL1        0.0315
     18 H          -0.9240   46.6190   30.9340 H       1  UNL1        0.0595
     19 H          -0.6390   49.0460   30.3010 H       1  UNL1        0.0315
     20 H          -1.7190   48.1920   32.5230 H       1  UNL1        0.0595
     21 H          -1.8760   50.6070   31.6020 H       1  UNL1        0.0315
     22 H          -1.6010   50.5480   34.6390 H       1  UNL1        0.0595
     23 H          -4.0170   50.2390   34.8060 H       1  UNL1        0.0318
     24 H          -4.4410   50.8190   32.2270 H       1  UNL1        0.0641
     25 H           0.5120   39.8480   23.7660 H       1  UNL1        0.0274
     26 H           2.5550   45.4890   21.4270 H       1  UNL1        0.0343
     27 H          -0.1290   44.0100   21.3430 H       1  UNL1        0.0734
     28 H           2.4650   43.3880   19.8380 H       1  UNL1        0.0265
     29 H          -4.4920   46.5330   31.5530 H       1  UNL1        0.0275
     30 H           1.2920   40.3750   21.4740 H       1  UNL1        0.0265
     31 H           4.0600   39.6390   22.5710 H       1  UNL1        0.0265
     32 H           3.1190   40.2350   19.7150 H       1  UNL1        0.0265
     33 H           5.8860   39.5100   20.8210 H       1  UNL1        0.0263
     34 H           6.6430   39.8240   18.4880 H       1  UNL1        0.0230
     35 H           2.8280   40.9970   26.1960 H       1  UNL1        0.2098
     36 H           1.5460   41.8040   27.9500 H       1  UNL1        0.2098
     37 H           1.5260   43.6970   29.8290 H       1  UNL1        0.2098
     38 H           1.1490   45.6760   31.6630 H       1  UNL1        0.2098
     39 H           0.4470   47.7790   33.3630 H       1  UNL1        0.2098
     40 H          -2.6950   52.3600   34.5500 H       1  UNL1        0.2098
     41 H           4.9780   40.1200   17.9570 H       1  UNL1        0.0230
     42 H           2.6600   43.4330   26.0110 H       1  UNL1        0.0315
     43 H           2.3550   45.1890   27.8860 H       1  UNL1        0.0315
     44 H           1.7940   47.1080   29.6230 H       1  UNL1        0.0315
     45 H           0.8870   49.0730   31.2100 H       1  UNL1        0.0315
     46 H          -0.4710   50.9900   32.5520 H       1  UNL1        0.0315
     47 H          -3.2380   48.8040   34.2000 H       1  UNL1        0.0318
     48 H           2.1640   39.5550   24.2880 H       1  UNL1        0.0274
     49 H           1.2130   46.0140   20.4080 H       1  UNL1        0.0343
     50 H           0.9460   43.9430   19.0940 H       1  UNL1        0.0265
     51 H          -5.7700   47.2880   32.4950 H       1  UNL1        0.0275
     52 H           1.7660   38.7740   22.0090 H       1  UNL1        0.0265
     53 H           3.6010   41.2280   21.9540 H       1  UNL1        0.0265
     54 H           3.5870   38.6430   20.3180 H       1  UNL1        0.0265
     55 H           5.4190   41.1010   20.2160 H       1  UNL1        0.0263
     56 H           5.4460   38.5190   18.5640 H       1  UNL1        0.0230
     57 H           1.0370   42.3650   19.9020 H       1  UNL1        0.0265
     58 H          -4.1410   47.0980   33.1690 H       1  UNL1        0.0275
     59 C           0.8240   42.5010   23.0960 C.2     1  UNL1        0.3130
     60 O          -0.3970   42.4610   23.0610 O.2     1  UNL1       -0.2504
     61 C           1.6810   41.6560   24.0190 C.3     1  UNL1        0.0823
     62 C           1.2350   41.9020   25.4750 C.3     1  UNL1        0.0705
     63 C           1.5690   43.3210   25.9740 C.3     1  UNL1        0.0001
     64 C           0.9980   43.5890   27.3770 C.3     1  UNL1        0.0600
     65 C           1.2700   45.0330   27.8270 C.3     1  UNL1       -0.0006
     66 C           0.6540   45.3220   29.2030 C.3     1  UNL1        0.0599
     67 C           0.7390   46.8120   29.5610 C.3     1  UNL1       -0.0006
     68 C           0.0610   47.0990   30.9090 C.3     1  UNL1        0.0599
     69 C          -0.1040   48.6050   31.1490 C.3     1  UNL1       -0.0006
     70 C          -0.8700   48.8750   32.4540 C.3     1  UNL1        0.0599
     71 C          -1.3470   50.3260   32.5180 C.3     1  UNL1       -0.0006
     72 C          -2.2150   50.6510   33.7360 C.3     1  UNL1        0.0602
     73 C          -3.5010   49.8310   33.9260 C.3     1  UNL1        0.0032
     74 C          -4.4940   49.8530   32.7430 C.3     1  UNL1        0.0786
     75 C          -4.3390   48.7100   31.7440 C.2     1  UNL1       -0.0445
     76 C          -3.9030   48.9680   30.4940 C.2     1  UNL1       -0.0604
     77 C          -3.6530   48.0110   29.4370 C.2     1  UNL1       -0.0617
     78 C          -2.9580   48.3330   28.3360 C.2     1  UNL1       -0.0618
     79 C           1.5510   40.1720   23.6200 C.3     1  UNL1       -0.0377
     80 C          -2.6330   47.3840   27.2940 C.2     1  UNL1       -0.0618
     81 C          -1.7830   47.6800   26.3000 C.2     1  UNL1       -0.0618
     82 C          -1.4060   46.7410   25.2660 C.2     1  UNL1       -0.0618
     83 C          -0.4540   47.0170   24.3620 C.2     1  UNL1       -0.0621
     84 C          -0.0490   46.0900   23.3290 C.2     1  UNL1       -0.0656
     85 C           0.9440   46.3630   22.4690 C.2     1  UNL1       -0.0805
     86 C           1.4610   45.4980   21.3440 C.3     1  UNL1        0.0026
     87 C           0.9640   44.0440   21.2700 C.3     1  UNL1        0.1037
     88 C           1.3750   43.4060   19.9450 C.3     1  UNL1       -0.0274
     89 C          -4.7020   47.3370   32.2610 C.3     1  UNL1       -0.0411
     90 C           1.9470   39.8440   22.1730 C.3     1  UNL1       -0.0522
     91 O           1.6130   43.2820   22.3120 O.3     1  UNL1       -0.4611
     92 C           3.4110   40.1540   21.8540 C.3     1  UNL1       -0.0530
     93 C           3.7700   39.7190   20.4310 C.3     1  UNL1       -0.0533
     94 C           5.2320   40.0260   20.1090 C.3     1  UNL1       -0.0559
     95 C           5.5930   39.5960   18.6960 C.3     1  UNL1       -0.0653
     96 O           1.8660   40.9650   26.3590 O.3     1  UNL1       -0.3909
     97 O           1.5840   42.7070   28.3390 O.3     1  UNL1       -0.3916
     98 O           1.3300   44.5790   30.2220 O.3     1  UNL1       -0.3916
     99 O           0.8330   46.5530   31.9830 O.3     1  UNL1       -0.3916
    100 O          -0.0300   48.6140   33.5760 O.3     1  UNL1       -0.3916
    101 O          -2.5840   52.0340   33.6400 O.3     1  UNL1       -0.3916
    102 O          -5.8240   49.7570   33.2640 O.3     1  UNL1       -0.3874
@<TRIPOS>BOND
     1    41    95    1
     2    34    95    1
     3    56    95    1
     4    95    94    1
     5    50    88    1
     6    32    93    1
     7    28    88    1
     8    57    88    1
     9    88    87    1
    10    94    55    1
    11    94    93    1
    12    94    33    1
    13    54    93    1
    14    49    86    1
    15    93    92    1
    16    87    27    1
    17    87    86    1
    18    87    91    1
    19    86    26    1
    20    86    85    1
    21    30    90    1
    22    92    53    1
    23    92    90    1
    24    92    31    1
    25    52    90    1
    26    90    79    1
    27    91    59    1
    28    85     2    1
    29    85    84    2
    30    60    59    2
    31    59    61    1
    32     1    84    1
    33    84    83    1
    34    79    25    1
    35    79    61    1
    36    79    48    1
    37    11    61    1
    38    61    62    1
    39    83     4    1
    40    83    82    2
    41     3    82    1
    42    82    81    1
    43    13    63    1
    44    62    12    1
    45    62    63    1
    46    62    96    1
    47    63    42    1
    48    63    64    1
    49    35    96    1
    50     5    81    1
    51    81    80    2
    52    15    65    1
    53    80     6    1
    54    80    78    1
    55    14    64    1
    56    64    65    1
    57    64    97    1
    58    65    43    1
    59    65    66    1
    60    36    97    1
    61     7    78    1
    62    78    77    2
    63    17    67    1
    64    66    16    1
    65    66    67    1
    66    66    98    1
    67    77     8    1
    68    77    76    1
    69    67    44    1
    70    67    68    1
    71    37    98    1
    72     9    76    1
    73    19    69    1
    74    76    75    2
    75    68    18    1
    76    68    69    1
    77    68    99    1
    78    69    45    1
    79    69    70    1
    80    29    89    1
    81    21    71    1
    82    38    99    1
    83    75    89    1
    84    75    74    1
    85    24    74    1
    86    89    51    1
    87    89    58    1
    88    70    71    1
    89    70    20    1
    90    70   100    1
    91    71    46    1
    92    71    72    1
    93    74   102    1
    94    74    73    1
    95   102    10    1
    96    39   100    1
    97   101    72    1
    98   101    40    1
    99    72    73    1
   100    72    22    1
   101    73    47    1
   102    73    23    1
