@<TRIPOS>MOLECULE
43.57098
 102 102 0 0 0
SMALL
GASTEIGER

@<TRIPOS>ATOM
      1 H           0.5240   43.2930   18.7160 H       1  UNL1        0.0614
      2 H           0.3030   45.3970   20.9490 H       1  UNL1        0.0573
      3 H           2.6670   43.5990   17.4540 H       1  UNL1        0.0618
      4 H           2.5400   45.2430   20.0530 H       1  UNL1        0.0617
      5 H           4.7740   45.1260   19.1470 H       1  UNL1        0.0618
      6 H           4.8500   44.0390   16.2690 H       1  UNL1        0.0618
      7 H           6.9980   45.0690   18.2600 H       1  UNL1        0.0618
      8 H           7.1200   44.6420   15.2120 H       1  UNL1        0.0618
      9 H           9.1590   46.1300   16.1380 H       1  UNL1        0.0618
     10 H          12.8840   44.7860   16.5570 H       1  UNL1        0.2102
     11 H           1.1180   41.2330   23.1130 H       1  UNL1        0.0439
     12 H           2.4320   43.3460   24.8870 H       1  UNL1        0.0602
     13 H           3.0300   43.2090   22.3810 H       1  UNL1        0.0315
     14 H           4.6680   44.1090   24.0440 H       1  UNL1        0.0595
     15 H           5.3790   43.7650   21.6160 H       1  UNL1        0.0315
     16 H           6.9680   44.8570   23.2230 H       1  UNL1        0.0595
     17 H           7.6940   44.3490   20.8230 H       1  UNL1        0.0315
     18 H           9.2200   45.6590   22.3140 H       1  UNL1        0.0595
     19 H           9.9290   44.9150   19.9810 H       1  UNL1        0.0315
     20 H          11.4040   46.5130   21.2930 H       1  UNL1        0.0595
     21 H          12.9110   44.3710   19.6830 H       1  UNL1        0.0315
     22 H          12.5570   47.3630   19.1130 H       1  UNL1        0.0595
     23 H          11.2740   46.8150   17.1170 H       1  UNL1        0.0318
     24 H          11.4880   43.9590   18.1210 H       1  UNL1        0.0641
     25 H           0.5930   40.4970   25.3770 H       1  UNL1        0.0274
     26 H          -1.5110   43.0780   20.0190 H       1  UNL1        0.0343
     27 H          -1.5380   44.7460   22.6100 H       1  UNL1        0.0734
     28 H          -3.2550   42.3600   21.7620 H       1  UNL1        0.0265
     29 H           8.4610   42.4960   16.8770 H       1  UNL1        0.0275
     30 H          -0.4520   43.3360   25.8900 H       1  UNL1        0.0265
     31 H          -0.4660   40.8250   27.6420 H       1  UNL1        0.0265
     32 H          -1.5040   43.6650   28.1520 H       1  UNL1        0.0265
     33 H          -1.5170   41.1610   29.9230 H       1  UNL1        0.0263
     34 H          -2.7510   42.5880   31.5240 H       1  UNL1        0.0230
     35 H           2.9420   40.5490   24.7810 H       1  UNL1        0.2098
     36 H           4.6750   42.0240   25.2360 H       1  UNL1        0.2098
     37 H           7.0490   42.6900   24.4460 H       1  UNL1        0.2098
     38 H           9.4120   43.6110   23.7310 H       1  UNL1        0.2098
     39 H          11.7190   44.6330   22.9000 H       1  UNL1        0.2098
     40 H          13.7520   46.9630   17.3820 H       1  UNL1        0.2098
     41 H          -2.5770   43.9890   30.4520 H       1  UNL1        0.0230
     42 H           3.6080   41.5640   22.7050 H       1  UNL1        0.0315
     43 H           6.0180   42.1770   22.0880 H       1  UNL1        0.0315
     44 H           8.4130   42.8430   21.4270 H       1  UNL1        0.0315
     45 H          10.7870   43.5610   20.7290 H       1  UNL1        0.0315
     46 H          13.7270   45.6910   20.4140 H       1  UNL1        0.0315
     47 H          10.3860   46.3630   18.5670 H       1  UNL1        0.0318
     48 H          -0.8340   41.1900   24.6370 H       1  UNL1        0.0274
     49 H          -2.1170   44.7370   20.1550 H       1  UNL1        0.0343
     50 H          -3.8170   44.0430   21.9010 H       1  UNL1        0.0265
     51 H           9.3930   42.6720   18.3700 H       1  UNL1        0.0275
     52 H           0.9660   42.6250   26.6620 H       1  UNL1        0.0265
     53 H          -1.8870   41.5420   26.8780 H       1  UNL1        0.0265
     54 H          -0.0810   42.9520   28.9140 H       1  UNL1        0.0265
     55 H          -2.9410   41.8750   29.1620 H       1  UNL1        0.0263
     56 H          -1.1450   43.2720   31.2170 H       1  UNL1        0.0230
     57 H          -3.2740   43.1440   23.3350 H       1  UNL1        0.0265
     58 H          10.1870   42.1730   16.8610 H       1  UNL1        0.0275
     59 C           0.3180   43.1990   23.2610 C.2     1  UNL1        0.3130
     60 O           0.6740   44.3640   23.3840 O.2     1  UNL1       -0.2504
     61 C           1.0310   42.0100   23.8840 C.3     1  UNL1        0.0823
     62 C           2.4570   42.4040   24.3270 C.3     1  UNL1        0.0705
     63 C           3.4470   42.5530   23.1530 C.3     1  UNL1        0.0001
     64 C           4.8110   43.1130   23.6080 C.3     1  UNL1        0.0600
     65 C           5.8160   43.1960   22.4450 C.3     1  UNL1       -0.0006
     66 C           7.1540   43.8390   22.8620 C.3     1  UNL1        0.0599
     67 C           8.1580   43.8760   21.6970 C.3     1  UNL1       -0.0006
     68 C           9.4600   44.6220   22.0530 C.3     1  UNL1        0.0599
     69 C          10.4570   44.5970   20.8790 C.3     1  UNL1       -0.0006
     70 C          11.7040   45.4740   21.1190 C.3     1  UNL1        0.0599
     71 C          12.7500   45.4120   19.9910 C.3     1  UNL1       -0.0006
     72 C          12.5300   46.3210   18.7710 C.3     1  UNL1        0.0602
     73 C          11.2530   46.1030   17.9530 C.3     1  UNL1        0.0032
     74 C          11.1410   44.6800   17.3750 C.3     1  UNL1        0.0786
     75 C           9.7380   44.2710   16.9740 C.2     1  UNL1       -0.0445
     76 C           8.8530   45.1260   16.4230 C.2     1  UNL1       -0.0604
     77 C           7.4510   44.8380   16.2270 C.2     1  UNL1       -0.0617
     78 C           6.6100   44.8280   17.2710 C.2     1  UNL1       -0.0618
     79 C           0.1600   41.4420   25.0290 C.3     1  UNL1       -0.0377
     80 C           5.2120   44.4800   17.1940 C.2     1  UNL1       -0.0618
     81 C           4.3930   44.6590   18.2400 C.2     1  UNL1       -0.0618
     82 C           3.0130   44.2370   18.2630 C.2     1  UNL1       -0.0618
     83 C           2.1880   44.5830   19.2610 C.2     1  UNL1       -0.0621
     84 C           0.8350   44.0970   19.3790 C.2     1  UNL1       -0.0656
     85 C          -0.0090   44.5760   20.3040 C.2     1  UNL1       -0.0805
     86 C          -1.3850   44.0260   20.5570 C.3     1  UNL1        0.0026
     87 C          -1.6570   43.8060   22.0560 C.3     1  UNL1        0.1037
     88 C          -3.0870   43.3160   22.2700 C.3     1  UNL1       -0.0274
     89 C           9.4190   42.8280   17.2870 C.3     1  UNL1       -0.0411
     90 C          -0.0100   42.3900   26.2240 C.3     1  UNL1       -0.0522
     91 O          -0.7900   42.7790   22.5850 O.3     1  UNL1       -0.4611
     92 C          -0.9030   41.7720   27.3020 C.3     1  UNL1       -0.0530
     93 C          -1.0660   42.7190   28.4930 C.3     1  UNL1       -0.0533
     94 C          -1.9530   42.1060   29.5760 C.3     1  UNL1       -0.0559
     95 C          -2.1140   43.0460   30.7600 C.3     1  UNL1       -0.0653
     96 O           2.9920   41.4170   25.2240 O.3     1  UNL1       -0.3909
     97 O           5.3950   42.2820   24.6170 O.3     1  UNL1       -0.3916
     98 O           7.7730   43.1130   23.9290 O.3     1  UNL1       -0.3916
     99 O          10.1120   44.0350   23.1820 O.3     1  UNL1       -0.3916
    100 O          12.3870   45.0330   22.2990 O.3     1  UNL1       -0.3916
    101 O          13.6460   46.1360   17.8890 O.3     1  UNL1       -0.3916
    102 O          11.9900   44.5410   16.2420 O.3     1  UNL1       -0.3874
@<TRIPOS>BOND
     1     8    77    1
     2     9    76    1
     3    77    76    1
     4    77    78    2
     5   102    10    1
     6   102    74    1
     7     6    80    1
     8    76    75    2
     9    58    89    1
    10    29    89    1
    11    75    89    1
    12    75    74    1
    13    23    73    1
    14    80    78    1
    15    80    81    2
    16    78     7    1
    17    89    51    1
    18    74    73    1
    19    74    24    1
    20    40   101    1
    21     3    82    1
    22   101    72    1
    23    73    47    1
    24    73    72    1
    25    81    82    1
    26    81     5    1
    27    82    83    2
    28     1    84    1
    29    72    22    1
    30    72    71    1
    31    83    84    1
    32    83     4    1
    33    84    85    2
    34    21    71    1
    35    19    69    1
    36    71    46    1
    37    71    70    1
    38    26    86    1
    39    49    86    1
    40    85    86    1
    41    85     2    1
    42    86    87    1
    43    45    69    1
    44    17    67    1
    45    69    70    1
    46    69    68    1
    47    70    20    1
    48    70   100    1
    49    44    67    1
    50    15    65    1
    51    67    68    1
    52    67    66    1
    53    28    88    1
    54    50    88    1
    55    68    18    1
    56    68    99    1
    57    87    88    1
    58    87    91    1
    59    87    27    1
    60    43    65    1
    61    88    57    1
    62   100    39    1
    63    13    63    1
    64    65    66    1
    65    65    64    1
    66    91    59    1
    67    42    63    1
    68    66    16    1
    69    66    98    1
    70    11    61    1
    71    63    64    1
    72    63    62    1
    73    99    38    1
    74    59    60    2
    75    59    61    1
    76    64    14    1
    77    64    97    1
    78    61    62    1
    79    61    79    1
    80    98    37    1
    81    62    12    1
    82    62    96    1
    83    97    36    1
    84    48    79    1
    85    35    96    1
    86    79    25    1
    87    79    90    1
    88    30    90    1
    89    90    52    1
    90    90    92    1
    91    53    92    1
    92    92    31    1
    93    92    93    1
    94    32    93    1
    95    93    54    1
    96    93    94    1
    97    55    94    1
    98    94    33    1
    99    94    95    1
   100    41    95    1
   101    95    56    1
   102    95    34    1
