@<TRIPOS>MOLECULE
44.55670
 102 102 0 0 0
SMALL
GASTEIGER

@<TRIPOS>ATOM
      1 H          -0.7800   44.3620   18.9950 H       1  UNL1        0.0614
      2 H           0.1470   42.4320   21.1940 H       1  UNL1        0.0573
      3 H          -0.2070   43.2940   16.7540 H       1  UNL1        0.0618
      4 H           0.0400   41.3580   19.1300 H       1  UNL1        0.0617
      5 H           0.5450   40.2880   17.0990 H       1  UNL1        0.0618
      6 H           0.9350   42.2570   14.7680 H       1  UNL1        0.0618
      7 H           1.7040   39.2830   15.2990 H       1  UNL1        0.0618
      8 H           2.5070   41.2870   13.1170 H       1  UNL1        0.0618
      9 H           3.3450   38.4010   13.8980 H       1  UNL1        0.0618
     10 H           6.1070   37.0490   10.8960 H       1  UNL1        0.2102
     11 H           1.1150   41.0010   24.3050 H       1  UNL1        0.0439
     12 H           3.7630   42.4190   23.7610 H       1  UNL1        0.0602
     13 H           2.3880   41.6080   21.7900 H       1  UNL1        0.0315
     14 H           4.8810   41.5090   21.5570 H       1  UNL1        0.0595
     15 H           3.5100   40.5870   19.6760 H       1  UNL1        0.0315
     16 H           6.0360   40.3120   19.5100 H       1  UNL1        0.0595
     17 H           4.6260   39.5150   17.5980 H       1  UNL1        0.0315
     18 H           7.1310   39.0400   17.5230 H       1  UNL1        0.0595
     19 H           5.7190   38.3990   15.5580 H       1  UNL1        0.0315
     20 H           8.2290   37.7190   15.6280 H       1  UNL1        0.0595
     21 H           6.2030   36.0830   14.0270 H       1  UNL1        0.0315
     22 H           8.6490   37.7840   13.2700 H       1  UNL1        0.0595
     23 H           7.2020   39.2440   12.0630 H       1  UNL1        0.0318
     24 H           4.9370   37.3330   12.7870 H       1  UNL1        0.0641
     25 H           2.6430   42.7680   26.2900 H       1  UNL1        0.0274
     26 H          -0.9900   45.2980   21.3410 H       1  UNL1        0.0343
     27 H          -0.6580   44.9320   23.8430 H       1  UNL1        0.0734
     28 H          -2.4710   42.8400   22.5300 H       1  UNL1        0.0265
     29 H           3.8200   41.2720   11.4440 H       1  UNL1        0.0275
     30 H           0.2140   43.2420   26.4690 H       1  UNL1        0.0265
     31 H          -0.0470   40.2250   26.9670 H       1  UNL1        0.0265
     32 H          -2.1020   42.4960   27.1170 H       1  UNL1        0.0265
     33 H          -2.4070   39.4780   27.5640 H       1  UNL1        0.0263
     34 H          -4.8040   40.0050   27.8730 H       1  UNL1        0.0230
     35 H           3.3390   39.7940   24.7710 H       1  UNL1        0.2098
     36 H           5.0870   40.0670   23.4170 H       1  UNL1        0.2098
     37 H           5.9260   38.7810   21.3910 H       1  UNL1        0.2098
     38 H           6.8300   37.4990   19.3660 H       1  UNL1        0.2098
     39 H           7.6760   36.1400   17.3350 H       1  UNL1        0.2098
     40 H           8.4370   37.0660   11.2940 H       1  UNL1        0.2098
     41 H          -4.4730   41.7380   27.7060 H       1  UNL1        0.0230
     42 H           2.3970   39.9880   22.5080 H       1  UNL1        0.0315
     43 H           3.4440   39.0180   20.4990 H       1  UNL1        0.0315
     44 H           4.4110   37.9550   18.4160 H       1  UNL1        0.0315
     45 H           5.3750   36.8370   16.3170 H       1  UNL1        0.0315
     46 H           7.8420   35.5460   14.0640 H       1  UNL1        0.0315
     47 H           6.6070   39.1830   13.7200 H       1  UNL1        0.0318
     48 H           2.3400   41.0460   26.4820 H       1  UNL1        0.0274
     49 H           0.6690   44.9600   21.8130 H       1  UNL1        0.0343
     50 H          -2.9050   44.5450   22.8050 H       1  UNL1        0.0265
     51 H           4.5200   40.1190   10.3260 H       1  UNL1        0.0275
     52 H           0.8470   42.3880   27.8640 H       1  UNL1        0.0265
     53 H          -0.7240   41.0790   25.5800 H       1  UNL1        0.0265
     54 H          -1.4610   41.6050   28.5000 H       1  UNL1        0.0265
     55 H          -3.0410   40.3680   26.1790 H       1  UNL1        0.0263
     56 H          -3.8370   40.8420   29.1000 H       1  UNL1        0.0230
     57 H          -2.5930   43.4510   24.1710 H       1  UNL1        0.0265
     58 H           5.5470   40.9390   11.5210 H       1  UNL1        0.0275
     59 C           1.2330   43.1200   23.9650 C.2     1  UNL1        0.3130
     60 O           1.8550   44.1670   23.8600 O.2     1  UNL1       -0.2504
     61 C           1.8000   41.8280   24.5250 C.3     1  UNL1        0.0823
     62 C           3.1490   41.5150   23.8310 C.3     1  UNL1        0.0705
     63 C           2.9690   40.9200   22.4130 C.3     1  UNL1        0.0001
     64 C           4.3010   40.5900   21.7010 C.3     1  UNL1        0.0600
     65 C           4.0650   39.9080   20.3330 C.3     1  UNL1       -0.0006
     66 C           5.3690   39.4520   19.6410 C.3     1  UNL1        0.0599
     67 C           5.1060   38.7920   18.2670 C.3     1  UNL1       -0.0006
     68 C           6.3910   38.2360   17.6110 C.3     1  UNL1        0.0599
     69 C           6.1310   37.6270   16.2140 C.3     1  UNL1       -0.0006
     70 C           7.4030   37.0000   15.5990 C.3     1  UNL1        0.0599
     71 C           7.2250   36.4510   14.1730 C.3     1  UNL1       -0.0006
     72 C           7.6420   37.4090   13.0480 C.3     1  UNL1        0.0602
     73 C           6.7090   38.5970   12.8010 C.3     1  UNL1        0.0032
     74 C           5.3330   38.1930   12.2370 C.3     1  UNL1        0.0786
     75 C           4.3470   39.3440   12.3230 C.2     1  UNL1       -0.0445
     76 C           3.3950   39.2960   13.2750 C.2     1  UNL1       -0.0604
     77 C           2.4790   40.3450   13.6550 C.2     1  UNL1       -0.0617
     78 C           1.7020   40.2180   14.7400 C.2     1  UNL1       -0.0618
     79 C           1.9270   41.9690   26.0570 C.3     1  UNL1       -0.0377
     80 C           0.9610   41.3160   15.3140 C.2     1  UNL1       -0.0618
     81 C           0.4600   41.2260   16.5530 C.2     1  UNL1       -0.0618
     82 C          -0.0500   42.3600   17.2880 C.2     1  UNL1       -0.0618
     83 C          -0.1780   42.2950   18.6200 C.2     1  UNL1       -0.0621
     84 C          -0.4610   43.4330   19.4590 C.2     1  UNL1       -0.0656
     85 C          -0.2230   43.3650   20.7760 C.2     1  UNL1       -0.0805
     86 C          -0.3300   44.5160   21.7370 C.3     1  UNL1        0.0026
     87 C          -0.8010   44.0980   23.1450 C.3     1  UNL1        0.1037
     88 C          -2.2790   43.7180   23.1560 C.3     1  UNL1       -0.0274
     89 C           4.5670   40.4800   11.3590 C.3     1  UNL1       -0.0411
     90 C           0.6150   42.2760   26.7970 C.3     1  UNL1       -0.0522
     91 O          -0.0760   42.9470   23.6400 O.3     1  UNL1       -0.4611
     92 C          -0.4510   41.1890   26.6340 C.3     1  UNL1       -0.0530
     93 C          -1.7120   41.5220   27.4350 C.3     1  UNL1       -0.0533
     94 C          -2.7880   40.4530   27.2420 C.3     1  UNL1       -0.0559
     95 C          -4.0480   40.7820   28.0280 C.3     1  UNL1       -0.0653
     96 O           3.9020   40.5760   24.6130 O.3     1  UNL1       -0.3909
     97 O           5.0900   39.7060   22.5020 O.3     1  UNL1       -0.3916
     98 O           6.0560   38.4960   20.4560 O.3     1  UNL1       -0.3916
     99 O           6.9660   37.2140   18.4320 O.3     1  UNL1       -0.3916
    100 O           7.8030   35.8770   16.3960 O.3     1  UNL1       -0.3916
    101 O           7.7340   36.6550   11.8310 O.3     1  UNL1       -0.3916
    102 O           5.4560   37.7810   10.8810 O.3     1  UNL1       -0.3874
@<TRIPOS>BOND
     1    51    89    1
     2   102    10    1
     3   102    74    1
     4    40   101    1
     5    89    29    1
     6    89    58    1
     7    89    75    1
     8   101    72    1
     9    23    73    1
    10    74    75    1
    11    74    24    1
    12    74    73    1
    13    75    76    2
    14    73    72    1
    15    73    47    1
    16    72    22    1
    17    72    71    1
    18     8    77    1
    19    76    77    1
    20    76     9    1
    21    77    78    2
    22    21    71    1
    23    46    71    1
    24    71    70    1
    25    78     7    1
    26    78    80    1
    27     6    80    1
    28    80    81    2
    29    19    69    1
    30    70    20    1
    31    70    69    1
    32    70   100    1
    33    69    45    1
    34    69    68    1
    35   100    39    1
    36    81     5    1
    37    81    82    1
    38     3    82    1
    39    82    83    2
    40    18    68    1
    41    17    67    1
    42    68    67    1
    43    68    99    1
    44    67    44    1
    45    67    66    1
    46    99    38    1
    47    83     4    1
    48    83    84    1
    49     1    84    1
    50    84    85    2
    51    16    66    1
    52    66    65    1
    53    66    98    1
    54    15    65    1
    55    65    43    1
    56    65    64    1
    57    98    37    1
    58    85     2    1
    59    85    86    1
    60    26    86    1
    61    14    64    1
    62    64    63    1
    63    64    97    1
    64    86    49    1
    65    86    87    1
    66    13    63    1
    67    63    42    1
    68    63    62    1
    69    97    36    1
    70    28    88    1
    71    50    88    1
    72    87    88    1
    73    87    91    1
    74    87    27    1
    75    88    57    1
    76    91    59    1
    77    12    62    1
    78    62    61    1
    79    62    96    1
    80    60    59    2
    81    59    61    1
    82    11    61    1
    83    61    79    1
    84    96    35    1
    85    53    92    1
    86    79    25    1
    87    79    48    1
    88    79    90    1
    89    55    94    1
    90    30    90    1
    91    92    90    1
    92    92    31    1
    93    92    93    1
    94    90    52    1
    95    32    93    1
    96    94    93    1
    97    94    33    1
    98    94    95    1
    99    93    54    1
   100    41    95    1
   101    34    95    1
   102    95    56    1
