@<TRIPOS>MOLECULE
41.89387
 102 102 0 0 0
SMALL
GASTEIGER

@<TRIPOS>ATOM
      1 H          -2.3190   41.1040   23.9150 H       1  UNL1        0.0614
      2 H          -0.9930   40.9650   26.6830 H       1  UNL1        0.0573
      3 H          -3.2460   38.9970   23.2030 H       1  UNL1        0.0618
      4 H          -1.6050   38.7230   25.7890 H       1  UNL1        0.0617
      5 H          -2.0710   36.5300   24.6780 H       1  UNL1        0.0618
      6 H          -4.0620   36.8970   22.3630 H       1  UNL1        0.0618
      7 H          -2.4620   34.4360   23.3790 H       1  UNL1        0.0618
      8 H          -4.7150   34.8320   21.3300 H       1  UNL1        0.0618
      9 H          -2.7250   32.5290   21.8750 H       1  UNL1        0.0618
     10 H          -4.2810   29.0480   20.0140 H       1  UNL1        0.2102
     11 H           3.1250   40.8260   25.4140 H       1  UNL1        0.0439
     12 H           3.1500   39.2470   23.5100 H       1  UNL1        0.0602
     13 H           2.5320   40.8160   21.6250 H       1  UNL1        0.0315
     14 H           2.2480   38.2560   21.5440 H       1  UNL1        0.0595
     15 H           1.7010   39.9820   19.5950 H       1  UNL1        0.0315
     16 H           0.8190   38.2080   18.1080 H       1  UNL1        0.0595
     17 H          -0.6480   36.9590   19.6880 H       1  UNL1        0.0315
     18 H           0.4160   35.7380   17.6700 H       1  UNL1        0.0595
     19 H          -1.3360   34.6390   18.9980 H       1  UNL1        0.0315
     20 H           0.0450   33.1720   17.3380 H       1  UNL1        0.0595
     21 H          -1.0560   31.7860   19.8440 H       1  UNL1        0.0315
     22 H          -2.8100   33.0810   18.4680 H       1  UNL1        0.0595
     23 H          -2.9630   30.0180   18.2310 H       1  UNL1        0.0318
     24 H          -2.8680   30.6330   20.6170 H       1  UNL1        0.0641
     25 H           4.0420   42.2480   22.8610 H       1  UNL1        0.0274
     26 H          -1.8120   43.4840   25.9740 H       1  UNL1        0.0343
     27 H           0.6310   44.2650   25.5800 H       1  UNL1        0.0734
     28 H           0.1430   42.5770   28.0860 H       1  UNL1        0.0265
     29 H          -6.1490   33.4330   20.5110 H       1  UNL1        0.0275
     30 H           5.0820   42.0930   25.7390 H       1  UNL1        0.0265
     31 H           6.2880   43.5050   23.3050 H       1  UNL1        0.0265
     32 H           7.1950   43.2770   26.2270 H       1  UNL1        0.0265
     33 H           8.5200   44.6580   23.8330 H       1  UNL1        0.0263
     34 H          10.3410   45.1490   25.4380 H       1  UNL1        0.0230
     35 H           0.5920   39.9210   24.5220 H       1  UNL1        0.2098
     36 H           0.5150   38.2550   23.0580 H       1  UNL1        0.2098
     37 H           3.0070   38.3980   18.5570 H       1  UNL1        0.2098
     38 H           2.5310   35.8680   18.8280 H       1  UNL1        0.2098
     39 H           1.8820   33.3020   18.8040 H       1  UNL1        0.2098
     40 H          -3.1770   32.2940   16.3720 H       1  UNL1        0.2098
     41 H           9.4120   44.4150   26.7560 H       1  UNL1        0.0230
     42 H           0.8810   40.8840   22.2880 H       1  UNL1        0.0315
     43 H           0.0120   39.5710   19.9400 H       1  UNL1        0.0315
     44 H           0.7840   36.4480   20.6090 H       1  UNL1        0.0315
     45 H          -0.1570   34.1610   20.2290 H       1  UNL1        0.0315
     46 H          -0.6020   30.9510   18.3740 H       1  UNL1        0.0315
     47 H          -4.2940   31.0750   17.9390 H       1  UNL1        0.0318
     48 H           4.8680   40.8450   23.5390 H       1  UNL1        0.0274
     49 H          -1.0610   43.0650   24.4370 H       1  UNL1        0.0343
     50 H          -0.3980   44.2570   27.8510 H       1  UNL1        0.0265
     51 H          -6.3480   31.8050   19.9110 H       1  UNL1        0.0275
     52 H           4.4100   43.5220   24.9520 H       1  UNL1        0.0265
     53 H           6.9370   42.0410   24.0480 H       1  UNL1        0.0265
     54 H           6.6040   44.7460   25.4480 H       1  UNL1        0.0265
     55 H           9.1030   43.1800   24.6020 H       1  UNL1        0.0263
     56 H           8.8320   45.9030   25.9830 H       1  UNL1        0.0230
     57 H           1.3310   43.8540   27.8920 H       1  UNL1        0.0265
     58 H          -5.4960   33.0070   18.9200 H       1  UNL1        0.0275
     59 C           1.8930   42.3010   24.5070 C.2     1  UNL1        0.3130
     60 O           1.5890   43.0670   23.6050 O.2     1  UNL1       -0.2504
     61 C           2.9100   41.1780   24.3950 C.3     1  UNL1        0.0823
     62 C           2.3390   39.9790   23.6150 C.3     1  UNL1        0.0705
     63 C           1.7840   40.2680   22.2080 C.3     1  UNL1        0.0001
     64 C           1.4130   38.9630   21.4760 C.3     1  UNL1        0.0600
     65 C           1.0440   39.2060   20.0050 C.3     1  UNL1       -0.0006
     66 C           1.1820   37.9570   19.1120 C.3     1  UNL1        0.0599
     67 C           0.4190   36.7180   19.6120 C.3     1  UNL1       -0.0006
     68 C           0.6240   35.4840   18.7150 C.3     1  UNL1        0.0599
     69 C          -0.2980   34.3300   19.1530 C.3     1  UNL1       -0.0006
     70 C          -0.0010   33.0090   18.4200 C.3     1  UNL1        0.0599
     71 C          -1.0080   31.8990   18.7550 C.3     1  UNL1       -0.0006
     72 C          -2.4050   32.1120   18.1640 C.3     1  UNL1        0.0602
     73 C          -3.3800   30.9860   18.5430 C.3     1  UNL1        0.0032
     74 C          -3.7500   30.9210   20.0340 C.3     1  UNL1        0.0786
     75 C          -4.3320   32.2240   20.5530 C.2     1  UNL1       -0.0445
     76 C          -3.6480   32.9430   21.4670 C.2     1  UNL1       -0.0604
     77 C          -3.9470   34.2960   21.8810 C.2     1  UNL1       -0.0617
     78 C          -3.2450   34.9460   22.8210 C.2     1  UNL1       -0.0618
     79 C           4.2260   41.6990   23.7920 C.3     1  UNL1       -0.0377
     80 C          -3.4100   36.3640   23.0530 C.2     1  UNL1       -0.0618
     81 C          -2.7320   37.0470   23.9870 C.2     1  UNL1       -0.0618
     82 C          -2.7510   38.4930   24.0320 C.2     1  UNL1       -0.0618
     83 C          -2.1090   39.2160   24.9610 C.2     1  UNL1       -0.0621
     84 C          -1.9640   40.6490   24.8390 C.2     1  UNL1       -0.0656
     85 C          -1.3420   41.4090   25.7530 C.2     1  UNL1       -0.0805
     86 C          -1.0300   42.8660   25.5170 C.3     1  UNL1        0.0026
     87 C           0.3530   43.3080   26.0410 C.3     1  UNL1        0.1037
     88 C           0.3460   43.5120   27.5540 C.3     1  UNL1       -0.0274
     89 C          -5.6470   32.6450   19.9420 C.3     1  UNL1       -0.0411
     90 C           4.9820   42.6040   24.7740 C.3     1  UNL1       -0.0522
     91 O           1.3640   42.3170   25.7600 O.3     1  UNL1       -0.4611
     92 C           6.3760   42.9610   24.2530 C.3     1  UNL1       -0.0530
     93 C           7.1440   43.8090   25.2690 C.3     1  UNL1       -0.0533
     94 C           8.5610   44.1160   24.7840 C.3     1  UNL1       -0.0559
     95 C           9.3290   44.9440   25.8020 C.3     1  UNL1       -0.0653
     96 O           1.3440   39.3110   24.4000 O.3     1  UNL1       -0.3909
     97 O           0.2770   38.3800   22.1150 O.3     1  UNL1       -0.3916
     98 O           2.5720   37.6310   18.9740 O.3     1  UNL1       -0.3916
     99 O           1.9860   35.0490   18.7910 O.3     1  UNL1       -0.3916
    100 O           1.2820   32.5230   18.8370 O.3     1  UNL1       -0.3916
    101 O          -2.2880   32.1470   16.7390 O.3     1  UNL1       -0.3916
    102 O          -4.7150   29.8910   20.2290 O.3     1  UNL1       -0.3874
@<TRIPOS>BOND
     1    40   101    1
     2   101    72    1
     3    20    70    1
     4    18    68    1
     5    47    73    1
     6    16    66    1
     7    72    22    1
     8    72    73    1
     9    72    71    1
    10    23    73    1
    11    46    71    1
    12    70    71    1
    13    70   100    1
    14    70    69    1
    15    73    74    1
    16    37    98    1
    17    68    99    1
    18    68    69    1
    19    68    67    1
    20    71    21    1
    21    99    38    1
    22    39   100    1
    23    58    89    1
    24    98    66    1
    25    19    69    1
    26    66    67    1
    27    66    65    1
    28    69    45    1
    29    15    65    1
    30    67    17    1
    31    67    44    1
    32    51    89    1
    33    43    65    1
    34    89    29    1
    35    89    75    1
    36    65    64    1
    37    10   102    1
    38    74   102    1
    39    74    75    1
    40    74    24    1
    41    75    76    2
    42     8    77    1
    43    76     9    1
    44    76    77    1
    45    64    14    1
    46    64    97    1
    47    64    63    1
    48    13    63    1
    49    77    78    2
    50    97    36    1
    51    63    42    1
    52    63    62    1
    53     6    80    1
    54    78    80    1
    55    78     7    1
    56    25    79    1
    57    80    81    2
    58     3    82    1
    59    31    92    1
    60    12    62    1
    61    48    79    1
    62    60    59    2
    63    62    61    1
    64    62    96    1
    65    79    61    1
    66    79    90    1
    67    33    94    1
    68     1    84    1
    69    81    82    1
    70    81     5    1
    71    82    83    2
    72    53    92    1
    73    92    90    1
    74    92    93    1
    75    61    59    1
    76    61    11    1
    77    96    35    1
    78    49    86    1
    79    59    91    1
    80    55    94    1
    81    90    52    1
    82    90    30    1
    83    94    93    1
    84    94    95    1
    85    84    83    1
    86    84    85    2
    87    83     4    1
    88    93    54    1
    89    93    32    1
    90    34    95    1
    91    86    85    1
    92    86    26    1
    93    86    87    1
    94    27    87    1
    95    85     2    1
    96    91    87    1
    97    95    56    1
    98    95    41    1
    99    87    88    1
   100    88    50    1
   101    88    57    1
   102    88    28    1
