@<TRIPOS>MOLECULE
47.43798
 102 102 0 0 0
SMALL
GASTEIGER

@<TRIPOS>ATOM
      1 H          -2.4040   45.1620   21.1230 H       1  UNL1        0.0614
      2 H          -1.2780   42.8620   22.8170 H       1  UNL1        0.0573
      3 H          -3.6310   46.7780   22.7000 H       1  UNL1        0.0618
      4 H          -1.9210   44.6740   24.1510 H       1  UNL1        0.0617
      5 H          -2.5840   46.4220   25.6040 H       1  UNL1        0.0618
      6 H          -4.8830   48.1250   24.4780 H       1  UNL1        0.0618
      7 H          -3.4000   47.9960   27.2080 H       1  UNL1        0.0618
      8 H          -6.1910   49.0330   26.4470 H       1  UNL1        0.0618
      9 H          -4.3980   49.3680   28.9300 H       1  UNL1        0.0618
     10 H          -7.2040   50.7570   32.0130 H       1  UNL1        0.2102
     11 H           2.9180   41.0820   23.5810 H       1  UNL1        0.0439
     12 H           0.4210   41.8330   25.1630 H       1  UNL1        0.0602
     13 H           2.5450   43.3190   25.2110 H       1  UNL1        0.0315
     14 H           1.7690   41.9150   27.8340 H       1  UNL1        0.0595
     15 H          -0.0570   43.3510   26.8360 H       1  UNL1        0.0315
     16 H           0.3110   43.3610   29.3540 H       1  UNL1        0.0595
     17 H          -1.5930   44.6770   28.3590 H       1  UNL1        0.0315
     18 H          -1.1950   44.7810   30.8690 H       1  UNL1        0.0595
     19 H          -3.1450   46.0020   29.8610 H       1  UNL1        0.0315
     20 H          -2.7450   46.2000   32.3710 H       1  UNL1        0.0595
     21 H          -3.6290   48.8740   31.1720 H       1  UNL1        0.0315
     22 H          -5.1440   47.0370   30.3080 H       1  UNL1        0.0595
     23 H          -6.3850   48.6150   32.6390 H       1  UNL1        0.0318
     24 H          -5.4120   50.1690   30.8950 H       1  UNL1        0.0641
     25 H           1.8280   38.9350   23.7880 H       1  UNL1        0.0274
     26 H          -1.4450   43.3040   19.7670 H       1  UNL1        0.0343
     27 H           0.6860   42.1530   19.5520 H       1  UNL1        0.0734
     28 H           0.9730   44.7240   21.1570 H       1  UNL1        0.0265
     29 H          -7.9260   48.6530   27.7290 H       1  UNL1        0.0275
     30 H          -0.7070   40.2550   22.6710 H       1  UNL1        0.0265
     31 H          -0.0610   37.3460   23.3690 H       1  UNL1        0.0265
     32 H          -2.5850   38.6360   22.2040 H       1  UNL1        0.0265
     33 H          -1.9480   35.7260   22.9350 H       1  UNL1        0.0263
     34 H          -4.1880   35.2460   22.0060 H       1  UNL1        0.0230
     35 H           2.2990   39.8170   25.8780 H       1  UNL1        0.2098
     36 H           3.8760   42.7740   27.8490 H       1  UNL1        0.2098
     37 H           2.4260   44.5300   28.9330 H       1  UNL1        0.2098
     38 H           0.8770   45.9810   30.4100 H       1  UNL1        0.2098
     39 H          -0.7020   47.4160   31.8820 H       1  UNL1        0.2098
     40 H          -6.2540   45.8110   31.8780 H       1  UNL1        0.2098
     41 H          -4.4750   36.9720   21.7300 H       1  UNL1        0.0230
     42 H           3.4050   41.9400   25.8470 H       1  UNL1        0.0315
     43 H           1.1030   44.6890   26.7110 H       1  UNL1        0.0315
     44 H          -0.5050   46.0680   28.1760 H       1  UNL1        0.0315
     45 H          -2.1150   47.4280   29.6330 H       1  UNL1        0.0315
     46 H          -3.9210   48.3310   32.8050 H       1  UNL1        0.0315
     47 H          -7.2990   47.7930   31.4290 H       1  UNL1        0.0318
     48 H           1.6620   39.5360   22.1610 H       1  UNL1        0.0274
     49 H          -1.4480   41.7560   20.6100 H       1  UNL1        0.0343
     50 H           0.8930   44.5220   19.4110 H       1  UNL1        0.0265
     51 H          -8.4450   50.0100   28.7310 H       1  UNL1        0.0275
     52 H          -0.5380   39.6140   24.3010 H       1  UNL1        0.0265
     53 H          -0.2170   37.9840   21.7300 H       1  UNL1        0.0265
     54 H          -2.4330   38.0100   23.8470 H       1  UNL1        0.0265
     55 H          -2.0930   36.3490   21.2910 H       1  UNL1        0.0263
     56 H          -4.3300   36.3490   23.3850 H       1  UNL1        0.0230
     57 H           2.2900   43.9040   20.3200 H       1  UNL1        0.0265
     58 H          -8.4040   48.3600   29.3900 H       1  UNL1        0.0275
     59 C           1.3540   42.2380   22.7550 C.2     1  UNL1        0.3130
     60 O           1.2540   43.3950   23.1390 O.2     1  UNL1       -0.2504
     61 C           1.8230   41.1000   23.6630 C.3     1  UNL1        0.0823
     62 C           1.4380   41.4260   25.1340 C.3     1  UNL1        0.0705
     63 C           2.4120   42.4090   25.8050 C.3     1  UNL1        0.0001
     64 C           2.0110   42.8030   27.2380 C.3     1  UNL1        0.0600
     65 C           0.8330   43.7980   27.2930 C.3     1  UNL1       -0.0006
     66 C           0.5020   44.2430   28.7330 C.3     1  UNL1        0.0599
     67 C          -0.7200   45.1820   28.7890 C.3     1  UNL1       -0.0006
     68 C          -1.0410   45.6530   30.2240 C.3     1  UNL1        0.0599
     69 C          -2.2930   46.5530   30.2720 C.3     1  UNL1       -0.0006
     70 C          -2.6160   47.0540   31.6960 C.3     1  UNL1        0.0599
     71 C          -3.8390   47.9780   31.7670 C.3     1  UNL1       -0.0006
     72 C          -5.1770   47.3590   31.3530 C.3     1  UNL1        0.0602
     73 C          -6.3520   48.3290   31.5790 C.3     1  UNL1        0.0032
     74 C          -6.3300   49.6000   30.7130 C.3     1  UNL1        0.0786
     75 C          -6.4770   49.3070   29.2290 C.2     1  UNL1       -0.0445
     76 C          -5.3720   49.2120   28.4630 C.2     1  UNL1       -0.0604
     77 C          -5.3200   48.8450   27.0670 C.2     1  UNL1       -0.0617
     78 C          -4.2480   48.2200   26.5610 C.2     1  UNL1       -0.0618
     79 C           1.3300   39.7110   23.1930 C.3     1  UNL1       -0.0377
     80 C          -4.1660   47.7430   25.2000 C.2     1  UNL1       -0.0618
     81 C          -3.2630   46.8180   24.8490 C.2     1  UNL1       -0.0618
     82 C          -3.1290   46.2700   23.5190 C.2     1  UNL1       -0.0618
     83 C          -2.3950   45.1700   23.3040 C.2     1  UNL1       -0.0621
     84 C          -2.1370   44.5910   22.0080 C.2     1  UNL1       -0.0656
     85 C          -1.5060   43.4120   21.9060 C.2     1  UNL1       -0.0805
     86 C          -1.0340   42.7720   20.6340 C.3     1  UNL1        0.0026
     87 C           0.5030   42.6860   20.4940 C.3     1  UNL1        0.1037
     88 C           1.2030   44.0350   20.3410 C.3     1  UNL1       -0.0274
     89 C          -7.8830   49.0700   28.7390 C.3     1  UNL1       -0.0411
     90 C          -0.1880   39.5000   23.2700 C.3     1  UNL1       -0.0522
     91 O           1.0970   41.8110   21.4910 O.3     1  UNL1       -0.4611
     92 C          -0.5670   38.1060   22.7620 C.3     1  UNL1       -0.0530
     93 C          -2.0790   37.8810   22.8170 C.3     1  UNL1       -0.0533
     94 C          -2.4470   36.4830   22.3200 C.3     1  UNL1       -0.0559
     95 C          -3.9490   36.2520   22.3640 C.3     1  UNL1       -0.0653
     96 O           1.4230   40.2370   25.9340 O.3     1  UNL1       -0.3909
     97 O           3.1480   43.4220   27.8610 O.3     1  UNL1       -0.3916
     98 O           1.6130   44.9400   29.3090 O.3     1  UNL1       -0.3916
     99 O           0.0560   46.3980   30.7630 O.3     1  UNL1       -0.3916
    100 O          -1.5290   47.8390   32.2050 O.3     1  UNL1       -0.3916
    101 O          -5.3960   46.1880   32.1420 O.3     1  UNL1       -0.3916
    102 O          -7.4040   50.4510   31.1120 O.3     1  UNL1       -0.3874
@<TRIPOS>BOND
     1    50    88    1
     2    27    87    1
     3    26    86    1
     4    57    88    1
     5    88    87    1
     6    88    28    1
     7    87    86    1
     8    87    91    1
     9    49    86    1
    10    86    85    1
    11     1    84    1
    12    55    94    1
    13    91    59    1
    14    41    95    1
    15    53    92    1
    16    85    84    2
    17    85     2    1
    18    34    95    1
    19    84    83    1
    20    48    79    1
    21    32    93    1
    22    94    95    1
    23    94    93    1
    24    94    33    1
    25    95    56    1
    26    30    90    1
    27     3    82    1
    28    59    60    2
    29    59    61    1
    30    92    93    1
    31    92    90    1
    32    92    31    1
    33    93    54    1
    34    79    90    1
    35    79    61    1
    36    79    25    1
    37    90    52    1
    38    83    82    2
    39    83     4    1
    40    82    81    1
    41    11    61    1
    42    61    62    1
    43     6    80    1
    44    81    80    2
    45    81     5    1
    46    62    12    1
    47    62    63    1
    48    62    96    1
    49    80    78    1
    50    13    63    1
    51    63    42    1
    52    63    64    1
    53    35    96    1
    54     8    77    1
    55    78    77    2
    56    78     7    1
    57    43    65    1
    58    15    65    1
    59    77    76    1
    60    64    65    1
    61    64    14    1
    62    64    97    1
    63    65    66    1
    64    29    89    1
    65    36    97    1
    66    44    67    1
    67    17    67    1
    68    76     9    1
    69    76    75    2
    70    51    89    1
    71    66    67    1
    72    66    98    1
    73    66    16    1
    74    89    75    1
    75    89    58    1
    76    67    68    1
    77    37    98    1
    78    75    74    1
    79    45    69    1
    80    19    69    1
    81    68    69    1
    82    68    99    1
    83    68    18    1
    84    69    70    1
    85    22    72    1
    86    38    99    1
    87    74    24    1
    88    74   102    1
    89    74    73    1
    90   102    10    1
    91    21    71    1
    92    72    73    1
    93    72    71    1
    94    72   101    1
    95    47    73    1
    96    73    23    1
    97    70    71    1
    98    70   100    1
    99    70    20    1
   100    71    46    1
   101    40   101    1
   102    39   100    1
