@<TRIPOS>MOLECULE
52.08221
 102 102 0 0 0
SMALL
GASTEIGER

@<TRIPOS>ATOM
      1 H           4.2400   38.1340   23.0310 H       1  UNL1        0.0614
      2 H           1.4800   37.3260   21.9430 H       1  UNL1        0.0573
      3 H           4.7320   37.1110   25.1710 H       1  UNL1        0.0618
      4 H           1.9720   36.2840   24.0930 H       1  UNL1        0.0617
      5 H           2.3080   35.6280   26.4350 H       1  UNL1        0.0618
      6 H           5.1520   36.2660   27.4180 H       1  UNL1        0.0618
      7 H           2.5920   35.2240   28.8440 H       1  UNL1        0.0618
      8 H           5.5150   35.5680   29.7170 H       1  UNL1        0.0618
      9 H           2.8720   35.0620   31.2440 H       1  UNL1        0.0618
     10 H           3.7990   33.3260   34.9460 H       1  UNL1        0.2102
     11 H           2.0270   40.5830   25.7910 H       1  UNL1        0.0439
     12 H           1.1420   42.9320   24.1350 H       1  UNL1        0.0602
     13 H           1.9820   44.2120   25.8900 H       1  UNL1        0.0315
     14 H           1.1280   43.7550   27.9100 H       1  UNL1        0.0595
     15 H           3.5230   43.9080   28.2960 H       1  UNL1        0.0315
     16 H           3.7250   43.1240   30.4550 H       1  UNL1        0.0595
     17 H           3.9370   40.7500   30.0370 H       1  UNL1        0.0315
     18 H           3.2120   41.4720   32.4020 H       1  UNL1        0.0595
     19 H           3.8680   39.1320   31.9610 H       1  UNL1        0.0315
     20 H           2.7470   39.7130   34.2360 H       1  UNL1        0.0595
     21 H           2.2080   36.8820   33.1820 H       1  UNL1        0.0315
     22 H           4.6860   37.4380   33.1470 H       1  UNL1        0.0595
     23 H           3.8820   35.6820   35.5380 H       1  UNL1        0.0318
     24 H           2.9250   34.7100   33.4850 H       1  UNL1        0.0641
     25 H          -0.1150   39.7670   25.6550 H       1  UNL1        0.0274
     26 H           1.6320   39.0730   20.4640 H       1  UNL1        0.0343
     27 H           4.0700   40.2240   21.9160 H       1  UNL1        0.0734
     28 H           1.9920   41.5240   20.0790 H       1  UNL1        0.0265
     29 H           6.6350   34.5830   31.2770 H       1  UNL1        0.0275
     30 H          -0.2430   40.3630   22.6500 H       1  UNL1        0.0265
     31 H          -2.0930   38.7920   24.5100 H       1  UNL1        0.0265
     32 H          -2.2770   39.3910   21.5100 H       1  UNL1        0.0265
     33 H          -4.1060   37.7850   23.3780 H       1  UNL1        0.0263
     34 H          -5.3880   37.2900   21.3240 H       1  UNL1        0.0230
     35 H          -0.2560   42.0510   26.4260 H       1  UNL1        0.2098
     36 H           0.6870   41.7800   28.7250 H       1  UNL1        0.2098
     37 H           1.7830   44.1980   30.3090 H       1  UNL1        0.2098
     38 H           1.0910   42.0820   31.5870 H       1  UNL1        0.2098
     39 H           0.6820   39.9680   33.1150 H       1  UNL1        0.2098
     40 H           5.6300   37.9700   35.1610 H       1  UNL1        0.2098
     41 H          -4.3240   38.3400   20.3720 H       1  UNL1        0.0230
     42 H           3.0920   42.8740   25.8410 H       1  UNL1        0.0315
     43 H           3.7750   42.1940   27.9980 H       1  UNL1        0.0315
     44 H           2.2250   40.5940   29.6470 H       1  UNL1        0.0315
     45 H           2.2390   38.7580   31.3710 H       1  UNL1        0.0315
     46 H           2.1440   37.3640   34.8620 H       1  UNL1        0.0315
     47 H           5.4660   35.7310   34.8620 H       1  UNL1        0.0318
     48 H           0.8520   38.9310   24.4650 H       1  UNL1        0.0274
     49 H           3.3060   38.6090   20.1740 H       1  UNL1        0.0343
     50 H           3.6790   41.1620   19.6410 H       1  UNL1        0.0265
     51 H           6.5260   33.8730   32.8700 H       1  UNL1        0.0275
     52 H          -1.2640   41.0710   23.8930 H       1  UNL1        0.0265
     53 H          -1.0600   38.0830   23.2680 H       1  UNL1        0.0265
     54 H          -3.3200   40.0860   22.7550 H       1  UNL1        0.0265
     55 H          -3.0630   37.0920   22.1350 H       1  UNL1        0.0263
     56 H          -5.3750   39.0370   21.6220 H       1  UNL1        0.0230
     57 H           3.3020   42.3550   20.9050 H       1  UNL1        0.0265
     58 H           6.6500   35.6350   32.6990 H       1  UNL1        0.0275
     59 C           2.6050   40.8600   23.8210 C.2     1  UNL1        0.3130
     60 O           3.7960   40.9890   24.0820 O.2     1  UNL1       -0.2504
     61 C           1.5160   40.9350   24.8830 C.3     1  UNL1        0.0823
     62 C           1.1040   42.4060   25.0960 C.3     1  UNL1        0.0705
     63 C           2.0530   43.1310   26.0770 C.3     1  UNL1        0.0001
     64 C           1.7640   42.9230   27.5830 C.3     1  UNL1        0.0600
     65 C           3.0620   42.9180   28.4120 C.3     1  UNL1       -0.0006
     66 C           2.8980   42.6430   29.9180 C.3     1  UNL1        0.0599
     67 C           2.9390   41.1410   30.2700 C.3     1  UNL1       -0.0006
     68 C           2.5920   40.8540   31.7420 C.3     1  UNL1        0.0599
     69 C           2.8070   39.3670   32.0870 C.3     1  UNL1       -0.0006
     70 C           2.3310   39.0090   33.5070 C.3     1  UNL1        0.0599
     71 C           2.6580   37.5650   33.9120 C.3     1  UNL1       -0.0006
     72 C           4.1510   37.2670   34.0840 C.3     1  UNL1        0.0602
     73 C           4.4080   35.8370   34.5860 C.3     1  UNL1        0.0032
     74 C           4.0150   34.7220   33.6060 C.3     1  UNL1        0.0786
     75 C           4.7000   34.8400   32.2550 C.2     1  UNL1       -0.0445
     76 C           3.9590   35.0470   31.1480 C.2     1  UNL1       -0.0604
     77 C           4.4570   35.3460   29.8240 C.2     1  UNL1       -0.0617
     78 C           3.6550   35.4410   28.7530 C.2     1  UNL1       -0.0618
     79 C           0.3890   39.9000   24.6880 C.3     1  UNL1       -0.0377
     80 C           4.1260   35.9050   27.4680 C.2     1  UNL1       -0.0618
     81 C           3.3350   35.9830   26.3880 C.2     1  UNL1       -0.0618
     82 C           3.7570   36.6270   25.1640 C.2     1  UNL1       -0.0618
     83 C           2.9570   36.7460   24.0950 C.2     1  UNL1       -0.0621
     84 C           3.2940   37.5990   22.9780 C.2     1  UNL1       -0.0656
     85 C           2.4330   37.8510   21.9790 C.2     1  UNL1       -0.0805
     86 C           2.6080   38.9420   20.9500 C.3     1  UNL1        0.0026
     87 C           3.0450   40.3020   21.5360 C.3     1  UNL1        0.1037
     88 C           3.0060   41.3930   20.4720 C.3     1  UNL1       -0.0274
     89 C           6.2050   34.7320   32.2710 C.3     1  UNL1       -0.0411
     90 C          -0.6860   40.1800   23.6320 C.3     1  UNL1       -0.0522
     91 O           2.1070   40.6680   22.5740 O.3     1  UNL1       -0.4611
     92 C          -1.6350   38.9800   23.5310 C.3     1  UNL1       -0.0530
     93 C          -2.7320   39.2000   22.4890 C.3     1  UNL1       -0.0533
     94 C          -3.6500   37.9790   22.4000 C.3     1  UNL1       -0.0559
     95 C          -4.7470   38.1760   21.3680 C.3     1  UNL1       -0.0653
     96 O          -0.2340   42.5360   25.5740 O.3     1  UNL1       -0.3909
     97 O           1.0120   41.7330   27.8030 O.3     1  UNL1       -0.3916
     98 O           1.6870   43.2300   30.3970 O.3     1  UNL1       -0.3916
     99 O           1.2240   41.1940   31.9880 O.3     1  UNL1       -0.3916
    100 O           0.9030   39.1240   33.5680 O.3     1  UNL1       -0.3916
    101 O           4.6880   38.1850   35.0400 O.3     1  UNL1       -0.3916
    102 O           4.3710   33.4630   34.1720 O.3     1  UNL1       -0.3874
@<TRIPOS>BOND
     1    50    88    1
     2    28    88    1
     3    49    86    1
     4    41    95    1
     5    26    86    1
     6    88    57    1
     7    88    87    1
     8    86    87    1
     9    86    85    1
    10    34    95    1
    11    95    56    1
    12    95    94    1
    13    32    93    1
    14    87    27    1
    15    87    91    1
    16     2    85    1
    17    85    84    2
    18    55    94    1
    19    94    93    1
    20    94    33    1
    21    93    54    1
    22    93    92    1
    23    91    59    1
    24    30    90    1
    25    84     1    1
    26    84    83    1
    27    53    92    1
    28    92    90    1
    29    92    31    1
    30    90    52    1
    31    90    79    1
    32    59    60    2
    33    59    61    1
    34     4    83    1
    35    83    82    2
    36    12    62    1
    37    48    79    1
    38    79    61    1
    39    79    25    1
    40    61    62    1
    41    61    11    1
    42    62    96    1
    43    62    63    1
    44    82     3    1
    45    82    81    1
    46    96    35    1
    47    42    63    1
    48    13    63    1
    49    63    64    1
    50    81     5    1
    51    81    80    2
    52     6    80    1
    53    80    78    1
    54    64    97    1
    55    64    14    1
    56    64    65    1
    57    97    36    1
    58    43    65    1
    59    15    65    1
    60    65    66    1
    61    78     7    1
    62    78    77    2
    63    44    67    1
    64     8    77    1
    65    77    76    1
    66    66    67    1
    67    66    98    1
    68    66    16    1
    69    17    67    1
    70    67    68    1
    71    37    98    1
    72    76     9    1
    73    76    75    2
    74    29    89    1
    75    45    69    1
    76    38    99    1
    77    68    99    1
    78    68    69    1
    79    68    18    1
    80    19    69    1
    81    69    70    1
    82    75    89    1
    83    75    74    1
    84    89    58    1
    85    89    51    1
    86    39   100    1
    87    22    72    1
    88    21    71    1
    89    24    74    1
    90    70   100    1
    91    70    71    1
    92    70    20    1
    93    74   102    1
    94    74    73    1
    95    71    72    1
    96    71    46    1
    97    72    73    1
    98    72   101    1
    99   102    10    1
   100    73    47    1
   101    73    23    1
   102   101    40    1
