@<TRIPOS>MOLECULE
30.55489
 102 102 0 0 0
SMALL
GASTEIGER

@<TRIPOS>ATOM
      1 H           5.3530   45.8440   20.3510 H       1  UNL1        0.0614
      2 H           5.4540   43.2920   22.0650 H       1  UNL1        0.0573
      3 H           6.1110   47.8120   21.5760 H       1  UNL1        0.0618
      4 H           6.4830   45.2210   23.1900 H       1  UNL1        0.0617
      5 H           7.3300   47.2060   24.3770 H       1  UNL1        0.0618
      6 H           6.7180   49.7990   22.8390 H       1  UNL1        0.0618
      7 H           8.0180   49.2190   25.6070 H       1  UNL1        0.0618
      8 H           7.1340   51.7850   24.1720 H       1  UNL1        0.0618
      9 H           8.5810   51.1970   26.8470 H       1  UNL1        0.0618
     10 H           9.3590   55.1090   28.5290 H       1  UNL1        0.2102
     11 H           2.6610   41.0720   23.4760 H       1  UNL1        0.0439
     12 H           0.9040   43.1930   24.8280 H       1  UNL1        0.0602
     13 H           3.0950   44.1580   24.0140 H       1  UNL1        0.0315
     14 H           2.0760   44.8600   26.2590 H       1  UNL1        0.0595
     15 H           4.0400   46.0600   25.3410 H       1  UNL1        0.0315
     16 H           3.2600   46.5170   27.7720 H       1  UNL1        0.0595
     17 H           4.8990   48.0160   26.6620 H       1  UNL1        0.0315
     18 H           4.4230   48.2720   29.1930 H       1  UNL1        0.0595
     19 H           5.7100   49.9810   27.9380 H       1  UNL1        0.0315
     20 H           5.5640   50.1440   30.5300 H       1  UNL1        0.0595
     21 H           8.1480   51.1850   29.2580 H       1  UNL1        0.0315
     22 H           5.9270   52.1170   28.2390 H       1  UNL1        0.0595
     23 H           7.6180   54.1000   29.8640 H       1  UNL1        0.0318
     24 H           9.0880   52.9420   28.2510 H       1  UNL1        0.0641
     25 H          -0.3780   41.4640   23.3620 H       1  UNL1        0.0274
     26 H           4.9910   42.2560   19.9190 H       1  UNL1        0.0343
     27 H           2.6260   44.1380   20.4620 H       1  UNL1        0.0734
     28 H           2.7030   41.4580   18.9610 H       1  UNL1        0.0265
     29 H           6.5880   53.7180   24.8030 H       1  UNL1        0.0275
     30 H           1.4120   39.2210   22.2840 H       1  UNL1        0.0265
     31 H          -1.6050   39.7070   22.1000 H       1  UNL1        0.0265
     32 H           0.1600   37.4540   21.0050 H       1  UNL1        0.0265
     33 H          -2.0820   36.6340   21.7800 H       1  UNL1        0.0263
     34 H          -4.0760   37.2840   20.4150 H       1  UNL1        0.0230
     35 H           2.4750   41.0290   25.7990 H       1  UNL1        0.2098
     36 H           2.4700   42.7970   27.2200 H       1  UNL1        0.2098
     37 H           4.1660   44.4180   28.4170 H       1  UNL1        0.2098
     38 H           5.6560   46.2720   29.5840 H       1  UNL1        0.2098
     39 H           7.0180   48.2700   30.6790 H       1  UNL1        0.2098
     40 H           4.7670   53.4710   29.6440 H       1  UNL1        0.2098
     41 H          -3.1430   38.5880   19.6640 H       1  UNL1        0.0230
     42 H           3.9460   42.8610   24.8790 H       1  UNL1        0.0315
     43 H           5.1270   44.8350   26.0260 H       1  UNL1        0.0315
     44 H           6.2210   46.9210   27.1150 H       1  UNL1        0.0315
     45 H           7.2020   49.0530   28.1790 H       1  UNL1        0.0315
     46 H           7.5390   51.6890   30.8160 H       1  UNL1        0.0315
     47 H           6.5040   54.5540   28.6280 H       1  UNL1        0.0318
     48 H           0.4350   40.2380   24.3310 H       1  UNL1        0.0274
     49 H           4.7250   43.8060   19.1190 H       1  UNL1        0.0343
     50 H           2.4700   43.0530   18.2050 H       1  UNL1        0.0265
     51 H           7.7200   54.9390   25.3750 H       1  UNL1        0.0275
     52 H           0.6330   40.4460   21.2820 H       1  UNL1        0.0265
     53 H          -0.8390   38.4490   23.0750 H       1  UNL1        0.0265
     54 H          -0.6250   38.6840   20.0220 H       1  UNL1        0.0265
     55 H          -1.8110   36.4810   20.0470 H       1  UNL1        0.0263
     56 H          -3.5120   38.6360   21.4000 H       1  UNL1        0.0230
     57 H           1.2560   42.3880   19.3190 H       1  UNL1        0.0265
     58 H           6.2410   54.5780   26.2890 H       1  UNL1        0.0275
     59 C           1.8070   42.6430   22.2830 C.2     1  UNL1        0.3130
     60 O           1.0180   43.5580   22.0930 O.2     1  UNL1       -0.2504
     61 C           1.7760   41.7230   23.4850 C.3     1  UNL1        0.0823
     62 C           1.8070   42.5730   24.7710 C.3     1  UNL1        0.0705
     63 C           3.0450   43.4880   24.8790 C.3     1  UNL1        0.0001
     64 C           3.0330   44.3330   26.1660 C.3     1  UNL1        0.0600
     65 C           4.1760   45.3620   26.1760 C.3     1  UNL1       -0.0006
     66 C           4.2510   46.1340   27.5040 C.3     1  UNL1        0.0599
     67 C           5.2410   47.3070   27.4250 C.3     1  UNL1       -0.0006
     68 C           5.4070   48.0240   28.7770 C.3     1  UNL1        0.0599
     69 C           6.2340   49.3120   28.6280 C.3     1  UNL1       -0.0006
     70 C           6.4990   50.0120   29.9750 C.3     1  UNL1        0.0599
     71 C           7.2230   51.3570   29.8180 C.3     1  UNL1       -0.0006
     72 C           6.3800   52.4610   29.1720 C.3     1  UNL1        0.0602
     73 C           7.1870   53.7440   28.9180 C.3     1  UNL1        0.0032
     74 C           8.3060   53.6090   27.8710 C.3     1  UNL1        0.0786
     75 C           7.8100   53.1210   26.5190 C.2     1  UNL1       -0.0445
     76 C           8.0270   51.8390   26.1600 C.2     1  UNL1       -0.0604
     77 C           7.5620   51.1770   24.9630 C.2     1  UNL1       -0.0617
     78 C           7.6070   49.8440   24.8170 C.2     1  UNL1       -0.0618
     79 C           0.5200   40.8340   23.4150 C.3     1  UNL1       -0.0377
     80 C           7.0780   49.1710   23.6520 C.2     1  UNL1       -0.0618
     81 C           6.9860   47.8360   23.5600 C.2     1  UNL1       -0.0618
     82 C           6.4080   47.1790   22.4100 C.2     1  UNL1       -0.0618
     83 C           6.2020   45.8550   22.3520 C.2     1  UNL1       -0.0621
     84 C           5.5800   45.2200   21.2140 C.2     1  UNL1       -0.0656
     85 C           5.2470   43.9210   21.2010 C.2     1  UNL1       -0.0805
     86 C           4.5470   43.2500   20.0480 C.3     1  UNL1        0.0026
     87 C           3.0360   43.1330   20.3040 C.3     1  UNL1        0.1037
     88 C           2.3300   42.4750   19.1240 C.3     1  UNL1       -0.0274
     89 C           7.0510   54.1360   25.7000 C.3     1  UNL1       -0.0411
     90 C           0.5380   39.8790   22.2150 C.3     1  UNL1       -0.0522
     91 O           2.8400   42.3020   21.4670 O.3     1  UNL1       -0.4611
     92 C          -0.7390   39.0370   22.1540 C.3     1  UNL1       -0.0530
     93 C          -0.7250   38.0990   20.9450 C.3     1  UNL1       -0.0533
     94 C          -1.9650   37.2080   20.8540 C.3     1  UNL1       -0.0559
     95 C          -3.2440   37.9790   20.5680 C.3     1  UNL1       -0.0653
     96 O           1.7870   41.7100   25.9210 O.3     1  UNL1       -0.3909
     97 O           3.1700   43.4820   27.3080 O.3     1  UNL1       -0.3916
     98 O           4.6720   45.2540   28.5520 O.3     1  UNL1       -0.3916
     99 O           6.0660   47.1600   29.7080 O.3     1  UNL1       -0.3916
    100 O           7.3630   49.1880   30.7680 O.3     1  UNL1       -0.3916
    101 O           5.3010   52.7700   30.0580 O.3     1  UNL1       -0.3916
    102 O           8.9260   54.8800   27.6890 O.3     1  UNL1       -0.3874
@<TRIPOS>BOND
     1    50    88    1
     2    28    88    1
     3    49    86    1
     4    88    57    1
     5    88    87    1
     6    41    95    1
     7    26    86    1
     8    54    93    1
     9    55    94    1
    10    86    87    1
    11    86    85    1
    12    87    27    1
    13    87    91    1
    14     1    84    1
    15    34    95    1
    16    95    94    1
    17    95    56    1
    18    94    93    1
    19    94    33    1
    20    93    32    1
    21    93    92    1
    22    85    84    2
    23    85     2    1
    24    84    83    1
    25    52    90    1
    26    91    59    1
    27     3    82    1
    28    60    59    2
    29    31    92    1
    30    92    90    1
    31    92    53    1
    32    90    30    1
    33    90    79    1
    34    59    61    1
    35    83    82    2
    36    83     4    1
    37    82    81    1
    38     6    80    1
    39    25    79    1
    40    79    61    1
    41    79    48    1
    42    11    61    1
    43    61    62    1
    44    81    80    2
    45    81     5    1
    46    80    78    1
    47    13    63    1
    48     8    77    1
    49    62    12    1
    50    62    63    1
    51    62    96    1
    52    29    89    1
    53    78    77    2
    54    78     7    1
    55    63    42    1
    56    63    64    1
    57    77    76    1
    58    15    65    1
    59    51    89    1
    60    89    58    1
    61    89    75    1
    62    35    96    1
    63    43    65    1
    64    76    75    2
    65    76     9    1
    66    64    65    1
    67    64    14    1
    68    64    97    1
    69    65    66    1
    70    75    74    1
    71    17    67    1
    72    44    67    1
    73    36    97    1
    74    67    66    1
    75    67    68    1
    76    66    16    1
    77    66    98    1
    78   102    74    1
    79   102    10    1
    80    74    24    1
    81    74    73    1
    82    19    69    1
    83    45    69    1
    84    22    72    1
    85    37    98    1
    86    69    68    1
    87    69    70    1
    88    47    73    1
    89    68    18    1
    90    68    99    1
    91    73    72    1
    92    73    23    1
    93    72    71    1
    94    72   101    1
    95    21    71    1
    96    38    99    1
    97    40   101    1
    98    71    70    1
    99    71    46    1
   100    70    20    1
   101    70   100    1
   102    39   100    1
