@<TRIPOS>MOLECULE
231.71443
 124 126 0 0 0
SMALL
GASTEIGER

@<TRIPOS>ATOM
      1  H01       34.3640   33.5780  268.4560 H     402  ZIT402      0.0524
      2  H02       35.4600   38.7720  266.6830 H     402  ZIT402      0.0391
      3  H03       37.2300   40.3970  270.1490 H     402  ZIT402      0.0391
      4  H04       34.1490   32.1460  267.4470 H     402  ZIT402      0.0524
      5  H05       35.2610   40.4680  267.0830 H     402  ZIT402      0.0391
      6  H06       37.8570   40.8890  268.5610 H     402  ZIT402      0.0391
      7  H07       34.7390   31.9930  269.1330 H     402  ZIT402      0.0524
      8  H08       36.8290   39.8900  266.4870 H     402  ZIT402      0.0391
      9  H09       36.2430   41.3820  269.0930 H     402  ZIT402      0.0391
     10  H10       38.8460   34.1200  270.7670 H     402  ZIT402      0.0629
     11  H12       39.4000   31.7460  275.3080 H     402  ZIT402      0.0639
     12  H13       38.5170   33.5170  268.6400 H     402  ZIT402      0.0621
     13  H15       38.8280   31.2990  266.5390 H     402  ZIT402      0.0648
     14  H16       35.9360   31.9490  273.3530 H     402  ZIT402      0.0436
     15  H17       37.4230   33.7580  273.3920 H     402  ZIT402      0.0349
     16  H18       38.5450   31.8930  271.9820 H     402  ZIT402      0.0608
     17  H19       35.8870   34.3510  270.8110 H     402  ZIT402      0.0234
     18  H20       35.8550   35.2770  272.3250 H     402  ZIT402      0.0234
     19  H21       35.1760   33.6620  272.2680 H     402  ZIT402      0.0234
     20  H22       38.9220   35.6050  274.3310 H     402  ZIT402      0.0297
     21  H23       39.6680   36.6590  273.1390 H     402  ZIT402      0.0297
     22  H24       40.0140   35.5790  276.4560 H     402  ZIT402      0.0429
     23  H25       41.7500   35.5200  276.6520 H     402  ZIT402      0.0429
     24  C1        37.3900   30.4620  273.6860 C.2   402  ZIT402      0.3128
     25  C2        36.5700   31.3080  272.7290 C.3   402  ZIT402      0.0801
     26  C3        37.5020   32.2040  271.8600 C.3   402  ZIT402      0.0793
     27  C4        37.3730   33.7080  272.2960 C.3   402  ZIT402      0.0124
     28  C5        38.5600   34.5630  271.7260 C.3   402  ZIT402      0.0950
     29  C6        39.8440   34.5590  272.6580 C.3   402  ZIT402      0.0900
     30  C7        39.8100   35.7250  273.6970 C.3   402  ZIT402     -0.0181
     31  C8        41.0540   35.9300  274.6170 C.3   402  ZIT402     -0.0284
     32  C9        40.9350   35.2140  275.9830 C.3   402  ZIT402      0.0016
     33  N10       40.9090   33.7490  275.8430 N.3   402  ZIT402     -0.2999
     34  C11       40.0240   33.1050  276.8650 C.3   402  ZIT402      0.0361
     35  C12       39.5540   31.6890  276.3890 C.3   402  ZIT402      0.1022
     36  C13       38.2420   31.1200  277.0370 C.3   402  ZIT402      0.1270
     37  C14       37.6610   30.0360  276.0570 C.3   402  ZIT402      0.1335
     38  C15       36.6170   29.1100  276.7080 C.3   402  ZIT402     -0.0157
     39  C16       36.1120   28.0350  275.7530 C.3   402  ZIT402     -0.0618
     40  C17       35.6210   30.3760  271.9780 C.3   402  ZIT402     -0.0499
     41  C18       35.9980   34.2790  271.8970 C.3   402  ZIT402     -0.0576
     42  C19       41.0990   34.6590  271.7780 C.3   402  ZIT402     -0.0336
     43  C20       41.2380   37.4330  274.8850 C.3   402  ZIT402     -0.0612
     44  C21       42.2710   33.1980  275.8070 C.3   402  ZIT402     -0.0124
     45  C22       40.6000   33.1070  278.2870 C.3   402  ZIT402     -0.0470
     46  C23       37.1940   32.2030  277.3440 C.3   402  ZIT402     -0.0301
     47  O1        38.2000   29.6110  273.3510 O.2   402  ZIT402     -0.2504
     48  O6        39.9160   33.2980  273.3240 O.3   402  ZIT402     -0.3863
     49  O12       40.5940   30.7150  276.6120 O.3   402  ZIT402     -0.3873
     50  O13       38.6320   30.5100  278.2890 O.3   402  ZIT402     -0.3826
     51  O14       37.0160   30.7390  274.9660 O.3   402  ZIT402     -0.4581
     52  C1A       38.0260   36.2880  270.1420 C.3   402  ZIT402      0.1871
     53  C2A       37.1960   37.5890  270.0580 C.3   402  ZIT402      0.1214
     54  C3A       37.2040   38.1350  268.6100 C.3   402  ZIT402      0.0429
     55  C4A       38.6440   38.2450  268.0980 C.3   402  ZIT402     -0.0085
     56  C5A       39.3490   36.8950  268.2540 C.3   402  ZIT402      0.0605
     57  C6A       40.8040   36.9950  267.8140 C.3   402  ZIT402     -0.0385
     58  C7A       35.9720   39.6350  267.1210 C.3   402  ZIT402     -0.0127
     59  C8A       36.9640   40.5560  269.1000 C.3   402  ZIT402     -0.0127
     60  O1A       38.1350   35.9200  271.5210 O.3   402  ZIT402     -0.3423
     61  O2A       35.8260   37.3790  270.4460 O.3   402  ZIT402     -0.3852
     62  N3A       36.3620   39.3610  268.5070 N.3   402  ZIT402     -0.3027
     63  O5A       39.3410   36.4930  269.6220 O.3   402  ZIT402     -0.3457
     64  C1B       37.8950   31.1430  269.7330 C.3   402  ZIT402      0.1627
     65  C2B       37.0420   30.5930  268.5850 C.3   402  ZIT402      0.0298
     66  C3B       36.8580   31.5880  267.4260 C.3   402  ZIT402      0.0991
     67  C4B       38.2550   32.1090  267.0070 C.3   402  ZIT402      0.1098
     68  C5B       39.0210   32.6340  268.2330 C.3   402  ZIT402      0.0874
     69  C6B       40.4360   33.0550  267.8430 C.3   402  ZIT402     -0.0361
     70  C7B       36.1920   30.8920  266.2260 C.3   402  ZIT402     -0.0331
     71  C8B       34.7760   32.5920  268.2230 C.3   402  ZIT402      0.0373
     72  O1B       37.1580   32.1230  270.4620 O.3   402  ZIT402     -0.3468
     73  O3B       36.1070   32.7760  267.7670 O.3   402  ZIT402     -0.3740
     74  O4B       38.1000   33.1590  266.0380 O.3   402  ZIT402     -0.3864
     75  O5B       39.1410   31.6380  269.2520 O.3   402  ZIT402     -0.3456
     76  H8        41.9650   35.5990  274.1130 H     402  ZIT402      0.0311
     77  H11       39.1230   33.7260  276.8770 H     402  ZIT402      0.0486
     78  H14       38.4830   29.4040  275.6980 H     402  ZIT402      0.0764
     79 H151       35.7500   29.6870  277.0450 H     402  ZIT402      0.0299
     80 H152       37.0480   28.6130  277.5840 H     402  ZIT402      0.0299
     81 H161       35.5730   28.4720  274.9080 H     402  ZIT402      0.0231
     82 H162       36.9400   27.4340  275.3650 H     402  ZIT402      0.0231
     83 H163       35.4210   27.3640  276.2750 H     402  ZIT402      0.0231
     84 H171       34.9720   30.9350  271.2980 H     402  ZIT402      0.0238
     85 H172       36.1590   29.6110  271.4100 H     402  ZIT402      0.0238
     86 H173       34.9740   29.8420  272.6840 H     402  ZIT402      0.0238
     87 H191       41.0760   33.9000  270.9880 H     402  ZIT402      0.0258
     88 H192       42.0110   34.4440  272.3430 H     402  ZIT402      0.0258
     89 H193       41.1960   35.6440  271.3130 H     402  ZIT402      0.0258
     90 H201       42.1100   37.6120  275.5220 H     402  ZIT402      0.0233
     91 H202       40.3590   37.8600  275.3810 H     402  ZIT402      0.0233
     92 H203       41.3990   37.9770  273.9480 H     402  ZIT402      0.0233
     93 H211       42.2660   32.1290  275.5820 H     402  ZIT402      0.0391
     94 H212       42.8190   33.3610  276.7400 H     402  ZIT402      0.0391
     95 H213       42.8500   33.6620  275.0000 H     402  ZIT402      0.0391
     96 H221       39.8490   32.7740  279.0100 H     402  ZIT402      0.0246
     97 H222       41.4680   32.4480  278.3860 H     402  ZIT402      0.0246
     98 H223       40.9050   34.1140  278.5890 H     402  ZIT402      0.0246
     99 H231       36.2590   31.7620  277.7040 H     402  ZIT402      0.0259
    100 H232       37.5260   32.8600  278.1550 H     402  ZIT402      0.0259
    101 H233       36.9640   32.8160  276.4660 H     402  ZIT402      0.0259
    102  HO6       40.4360   33.4210  274.1470 H     402  ZIT402      0.2103
    103 HO12       40.4090   30.3520  277.5020 H     402  ZIT402      0.2100
    104 HO13       37.8220   30.3250  278.7980 H     402  ZIT402      0.2104
    105 H1A1       37.5170   35.4900  269.5880 H     402  ZIT402      0.0937
    106 H2A1       37.6200   38.3190  270.7570 H     402  ZIT402      0.0660
    107 H3A1       36.6920   37.3700  268.0060 H     402  ZIT402      0.0490
    108 H4A1       39.1870   39.0000  268.6800 H     402  ZIT402      0.0306
    109 H4A2       38.6640   38.5550  267.0470 H     402  ZIT402      0.0306
    110 H5A1       38.8500   36.1250  267.6520 H     402  ZIT402      0.0595
    111 H6A1       40.8820   37.2730  266.7590 H     402  ZIT402      0.0255
    112 H6A2       41.3450   37.7360  268.4140 H     402  ZIT402      0.0255
    113 H6A3       41.3170   36.0400  267.9650 H     402  ZIT402      0.0255
    114 HO2A       35.3570   38.1680  270.1050 H     402  ZIT402      0.2101
    115 H1B1       38.1300   30.3010  270.3940 H     402  ZIT402      0.0911
    116 H2B1       36.0710   30.2680  268.9710 H     402  ZIT402      0.0343
    117 H2B2       37.5490   29.7010  268.1910 H     402  ZIT402      0.0343
    118 H6B1       41.0070   32.2010  267.4630 H     402  ZIT402      0.0255
    119 H6B2       40.4290   33.8380  267.0790 H     402  ZIT402      0.0255
    120 H6B3       40.9780   33.4300  268.7150 H     402  ZIT402      0.0255
    121 H7B1       36.8390   30.1160  265.8030 H     402  ZIT402      0.0258
    122 H7B2       35.2530   30.4100  266.5170 H     402  ZIT402      0.0258
    123 H7B3       35.9480   31.6100  265.4360 H     402  ZIT402      0.0258
    124 HO4B       37.3220   33.6640  266.3520 H     402  ZIT402      0.2100
@<TRIPOS>BOND
     1     1    71    1
     2     2    58    1
     3     3    59    1
     4     4    71    1
     5     5    58    1
     6     6    59    1
     7     7    71    1
     8     8    58    1
     9     9    59    1
    10    10    28    1
    11    11    35    1
    12    12    68    1
    13    13    67    1
    14    14    25    1
    15    15    27    1
    16    16    26    1
    17    17    41    1
    18    18    41    1
    19    19    41    1
    20    20    30    1
    21    21    30    1
    22    22    32    1
    23    23    32    1
    24    24    25    1
    25    24    47    2
    26    24    51    1
    27    25    26    1
    28    25    40    1
    29    26    27    1
    30    26    72    1
    31    27    28    1
    32    27    41    1
    33    28    29    1
    34    28    60    1
    35    29    30    1
    36    29    42    1
    37    29    48    1
    38    30    31    1
    39    31    32    1
    40    31    43    1
    41    31    76    1
    42    32    33    1
    43    33    34    1
    44    33    44    1
    45    34    35    1
    46    34    45    1
    47    34    77    1
    48    35    36    1
    49    35    49    1
    50    36    37    1
    51    36    46    1
    52    36    50    1
    53    37    38    1
    54    37    51    1
    55    37    78    1
    56    38    39    1
    57    38    79    1
    58    38    80    1
    59    39    81    1
    60    39    82    1
    61    39    83    1
    62    40    84    1
    63    40    85    1
    64    40    86    1
    65    42    87    1
    66    42    88    1
    67    42    89    1
    68    43    90    1
    69    43    91    1
    70    43    92    1
    71    44    93    1
    72    44    94    1
    73    44    95    1
    74    45    96    1
    75    45    97    1
    76    45    98    1
    77    46    99    1
    78    46   100    1
    79    46   101    1
    80    48   102    1
    81    49   103    1
    82    50   104    1
    83    52    53    1
    84    52    60    1
    85    52    63    1
    86    52   105    1
    87    53    54    1
    88    53    61    1
    89    53   106    1
    90    54    55    1
    91    54    62    1
    92    54   107    1
    93    55    56    1
    94    55   108    1
    95    55   109    1
    96    56    57    1
    97    56    63    1
    98    56   110    1
    99    57   111    1
   100    57   112    1
   101    57   113    1
   102    58    62    1
   103    59    62    1
   104    61   114    1
   105    64    65    1
   106    64    72    1
   107    64    75    1
   108    64   115    1
   109    65    66    1
   110    65   116    1
   111    65   117    1
   112    66    67    1
   113    66    70    1
   114    66    73    1
   115    67    68    1
   116    67    74    1
   117    68    69    1
   118    68    75    1
   119    69   118    1
   120    69   119    1
   121    69   120    1
   122    70   121    1
   123    70   122    1
   124    70   123    1
   125    71    73    1
   126    74   124    1
