@<TRIPOS>MOLECULE
107.44015
 113 117 0 0 0
SMALL
GASTEIGER

@<TRIPOS>ATOM
      1  H01      -30.5230   -2.6600   47.7770 H       1  39Y1        0.0666
      2  O        -30.2410   -3.2070   51.0400 O.2     1  39Y1       -0.2708
      3  C8       -30.1300   -3.3760   49.8310 C.2     1  39Y1        0.2372
      4  C9       -30.6990   -2.4470   48.8250 C.2     1  39Y1       -0.0038
      5  C10      -31.4240   -1.3880   49.2160 C.2     1  39Y1       -0.0789
      6  C11      -32.0590   -0.4070   48.2700 C.3     1  39Y1       -0.0317
      7  C12      -31.6340    1.0530   48.5320 C.3     1  39Y1       -0.0407
      8  C13      -30.1210    1.2350   48.3570 C.3     1  39Y1       -0.0621
      9  C14      -32.3670    2.0400   47.6000 C.3     1  39Y1       -0.0530
     10  C15      -33.8730    2.0930   47.8220 C.3     1  39Y1       -0.0650
     11  H15      -31.5970   -1.2170   50.2780 H       1  39Y1        0.0574
     12  H16      -33.1430   -0.5060   48.3940 H       1  39Y1        0.0310
     13  H17      -31.8360   -0.6750   47.2290 H       1  39Y1        0.0310
     14  H18      -31.8830    1.3130   49.5700 H       1  39Y1        0.0301
     15  H21      -29.8320    2.2790   48.5230 H       1  39Y1        0.0233
     16  H19      -29.5590    0.6280   49.0740 H       1  39Y1        0.0233
     17  H20      -29.8040    0.9540   47.3470 H       1  39Y1        0.0233
     18  H23      -32.1670    1.7870   46.5520 H       1  39Y1        0.0265
     19  H22      -31.9690    3.0490   47.7620 H       1  39Y1        0.0265
     20  H26      -34.1090    2.2880   48.8730 H       1  39Y1        0.0230
     21  H24      -34.3110    2.8970   47.2220 H       1  39Y1        0.0230
     22  H25      -34.3580    1.1600   47.5230 H       1  39Y1        0.0230
     23  C        -27.4140   -4.9990   50.4080 C.2     2  WFP2        0.2344
     24  N        -29.4450   -4.4220   49.2740 N.am    2  WFP2       -0.3002
     25  O        -26.4310   -5.4380   49.8140 O.2     2  WFP2       -0.2737
     26  F1       -32.8090   -9.1750   51.0010 F       2  WFP2       -0.2054
     27  F2       -32.7310   -7.6160   46.5590 F       2  WFP2       -0.2054
     28  CA       -28.8460   -5.4630   50.1080 C.3     2  WFP2        0.1036
     29  CB       -28.8300   -6.8240   49.3990 C.3     2  WFP2       -0.0005
     30  CG       -30.2140   -7.3910   49.1780 C.ar    2  WFP2       -0.0397
     31  CZ       -32.8070   -8.4110   48.7740 C.ar    2  WFP2        0.0088
     32  CD1      -30.8920   -8.0460   50.2150 C.ar    2  WFP2       -0.0230
     33  CD2      -30.8520   -7.2500   47.9370 C.ar    2  WFP2       -0.0230
     34  CE1      -32.1750   -8.5480   50.0020 C.ar    2  WFP2        0.1264
     35  CE2      -32.1360   -7.7600   47.7500 C.ar    2  WFP2        0.1264
     36  H        -29.1680   -4.3790   48.2940 H       2  WFP2        0.1498
     37  HA       -29.3920   -5.5360   51.0570 H       2  WFP2        0.0598
     38  HB2      -28.3150   -6.7480   48.4320 H       2  WFP2        0.0336
     39  HB3      -28.2460   -7.5470   49.9850 H       2  WFP2        0.0336
     40  HZ       -33.8040   -8.8040   48.6200 H       2  WFP2        0.0675
     41  HD1      -30.4360   -8.1730   51.1930 H       2  WFP2        0.0649
     42  HD2      -30.3640   -6.7430   47.1090 H       2  WFP2        0.0649
     43  N        -27.3270   -3.9620   51.3060 N.am    3  THR3       -0.2995
     44  CA       -26.0620   -3.3000   51.6350 C.3     3  THR3        0.1366
     45  C        -25.6940   -3.6220   53.0880 C.2     3  THR3        0.2402
     46  O        -26.4750   -3.3610   54.0070 O.2     3  THR3       -0.2734
     47  CB       -26.1660   -1.7840   51.3750 C.3     3  THR3        0.1270
     48  OG1      -26.0690   -1.5490   49.9390 O.3     3  THR3       -0.4580
     49  CG2      -25.2080   -0.8880   52.1610 C.3     3  THR3       -0.0254
     50  H        -28.1780   -3.6530   51.7790 H       3  THR3        0.1496
     51  HA       -25.3190   -3.7120   50.9580 H       3  THR3        0.0632
     52  HB       -27.1790   -1.4500   51.6350 H       3  THR3        0.0755
     53 HG21      -24.1790   -1.2580   52.1390 H       3  THR3        0.0266
     54 HG22      -25.2010    0.1250   51.7470 H       3  THR3        0.0266
     55 HG23      -25.5080   -0.8250   53.2120 H       3  THR3        0.0266
     56  N        -24.4640   -4.2050   53.3170 N.am    4  PRO4       -0.2883
     57  CA       -23.4470   -4.5590   52.3160 C.3     4  PRO4        0.1025
     58  C        -23.8120   -5.8710   51.5680 C.2     4  PRO4        0.2367
     59  O        -24.4750   -6.7390   52.1460 O.2     4  PRO4       -0.2735
     60  CB       -22.1800   -4.7680   53.1470 C.3     4  PRO4       -0.0243
     61  CG       -22.7160   -5.2830   54.4810 C.3     4  PRO4       -0.0350
     62  CD       -24.0180   -4.5170   54.6620 C.3     4  PRO4        0.0156
     63  HA       -23.3360   -3.7200   51.6340 H       4  PRO4        0.0597
     64  HB2      -21.4630   -5.4590   52.6950 H       4  PRO4        0.0288
     65  HB3      -21.6780   -3.8050   53.3050 H       4  PRO4        0.0288
     66  HG2      -22.9170   -6.3580   54.4130 H       4  PRO4        0.0281
     67  HG3      -22.0180   -5.1230   55.3090 H       4  PRO4        0.0281
     68  HD2      -24.7790   -5.0920   55.1990 H       4  PRO4        0.0465
     69  HD3      -23.8560   -3.5710   55.1900 H       4  PRO4        0.0465
     70  N3       -23.3140   -6.0830   50.2850 N.am    5  3A05       -0.2884
     71  O4       -22.5090   -4.2640   47.1990 O.2     5  3A05       -0.2738
     72  C21      -22.5040   -5.1420   49.4810 C.3     5  3A05        0.1025
     73  C22      -23.1680   -4.6970   48.1440 C.2     5  3A05        0.2342
     74  C33      -21.1190   -5.7640   49.2260 C.3     5  3A05       -0.0231
     75  C34      -21.2260   -7.1650   48.5960 C.3     5  3A05       -0.0403
     76  C35      -19.8430   -7.7950   48.4420 C.3     5  3A05       -0.0623
     77  C36      -22.1430   -8.0660   49.4370 C.3     5  3A05       -0.0345
     78  C37      -23.4990   -7.4050   49.6780 C.3     5  3A05        0.0158
     79  H3       -22.3410   -4.2160   50.0320 H       5  3A05        0.0597
     80  H41      -20.5880   -5.8420   50.1840 H       5  3A05        0.0290
     81  H42      -20.5140   -5.1130   48.5840 H       5  3A05        0.0290
     82  H7       -21.6620   -7.0670   47.5930 H       5  3A05        0.0299
     83  H44      -19.3520   -7.9210   49.4130 H       5  3A05        0.0232
     84  H43      -19.9160   -8.7800   47.9690 H       5  3A05        0.0232
     85  H45      -19.1990   -7.1680   47.8160 H       5  3A05        0.0232
     86  H46      -21.6680   -8.2760   50.4040 H       5  3A05        0.0283
     87  H47      -22.2890   -9.0290   48.9340 H       5  3A05        0.0283
     88  H48      -24.1110   -8.0570   50.3070 H       5  3A05        0.0465
     89  H49      -24.0360   -7.2840   48.7310 H       5  3A05        0.0465
     90  N        -24.5450   -4.6730   48.1250 N.am    6  ALA6       -0.3027
     91  CA       -25.3100   -4.4480   46.9000 C.3     6  ALA6        0.0968
     92  C        -26.5490   -3.5270   47.0910 C.2     6  ALA6        0.2363
     93  O        -27.7060   -3.9460   46.9650 O.2     6  ALA6       -0.2736
     94  CB       -25.7200   -5.7970   46.3100 C.3     6  ALA6       -0.0381
     95  H        -25.0600   -5.0410   48.9320 H       6  ALA6        0.1495
     96  HA       -24.6670   -3.9590   46.1580 H       6  ALA6        0.0592
     97  HB1      -24.8390   -6.4110   46.0910 H       6  ALA6        0.0252
     98  HB2      -26.2830   -5.6660   45.3800 H       6  ALA6        0.0252
     99  HB3      -26.3490   -6.3610   47.0070 H       6  ALA6        0.0252
    100  N        -26.3070   -2.1850   47.3180 N.am    7  PRO7       -0.2865
    101  CA       -25.0480   -1.5830   47.7630 C.3     7  PRO7        0.1230
    102  C        -24.8800   -1.7050   49.2880 C.2     7  PRO7        0.3282
    103  O        -23.7980   -1.8560   49.8420 O.2     7  PRO7       -0.2487
    104  CB       -25.1890   -0.1200   47.3500 C.3     7  PRO7       -0.0225
    105  CG       -26.6870    0.1520   47.4790 C.3     7  PRO7       -0.0349
    106  CD       -27.3430   -1.1820   47.1460 C.3     7  PRO7        0.0157
    107  HA       -24.1910   -2.0560   47.2790 H       7  PRO7        0.0616
    108  HB2      -24.5910    0.5670   47.9550 H       7  PRO7        0.0289
    109  HB3      -24.8920   -0.0030   46.3000 H       7  PRO7        0.0289
    110  HG2      -26.9290    0.4480   48.5060 H       7  PRO7        0.0281
    111  HG3      -27.0250    0.9570   46.8200 H       7  PRO7        0.0281
    112  HD2      -28.1910   -1.4010   47.7990 H       7  PRO7        0.0465
    113  HD3      -27.6850   -1.2180   46.1060 H       7  PRO7        0.0465
@<TRIPOS>BOND
     1     1     4    1
     2     2     3    2
     3     3     4    1
     4     3    24   am
     5     4     5    2
     6     5     6    1
     7     5    11    1
     8     6     7    1
     9     6    12    1
    10     6    13    1
    11     7     8    1
    12     7     9    1
    13     7    14    1
    14     8    15    1
    15     8    16    1
    16     8    17    1
    17     9    10    1
    18     9    18    1
    19     9    19    1
    20    10    20    1
    21    10    21    1
    22    10    22    1
    23    23    25    2
    24    23    28    1
    25    23    43   am
    26    24    28    1
    27    24    36    1
    28    26    34    1
    29    27    35    1
    30    28    29    1
    31    28    37    1
    32    29    30    1
    33    29    38    1
    34    29    39    1
    35    30    32   ar
    36    30    33   ar
    37    31    34   ar
    38    31    35   ar
    39    31    40    1
    40    32    34   ar
    41    32    41    1
    42    33    35   ar
    43    33    42    1
    44    43    44    1
    45    43    50    1
    46    44    51    1
    47    44    47    1
    48    44    45    1
    49    45    56   am
    50    45    46    2
    51    47    48    1
    52    47    52    1
    53    47    49    1
    54    48   102    1
    55    49    54    1
    56    49    53    1
    57    49    55    1
    58    56    57    1
    59    56    62    1
    60    57    58    1
    61    57    63    1
    62    57    60    1
    63    58    70   am
    64    58    59    2
    65    60    64    1
    66    60    65    1
    67    60    61    1
    68    61    66    1
    69    61    62    1
    70    61    67    1
    71    62    68    1
    72    62    69    1
    73    70    72    1
    74    70    78    1
    75    71    73    2
    76    72    73    1
    77    72    74    1
    78    72    79    1
    79    73    90   am
    80    74    75    1
    81    74    80    1
    82    74    81    1
    83    75    76    1
    84    75    77    1
    85    75    82    1
    86    76    83    1
    87    76    84    1
    88    76    85    1
    89    77    78    1
    90    77    86    1
    91    77    87    1
    92    78    88    1
    93    78    89    1
    94    90    91    1
    95    90    95    1
    96    91    96    1
    97    91    94    1
    98    91    92    1
    99    92    93    2
   100    92   100   am
   101    94    98    1
   102    94    97    1
   103    94    99    1
   104   100   106    1
   105   100   101    1
   106   101   104    1
   107   101   107    1
   108   101   102    1
   109   102   103    2
   110   104   109    1
   111   104   105    1
   112   104   108    1
   113   105   111    1
   114   105   106    1
   115   105   110    1
   116   106   113    1
   117   106   112    1
